file 149910240 1608222540                                       
version 2
run General-0-20201218-00:26:47-14620
attr configname General
attr datetime 20201218-00:26:47
attr experiment General
attr inifile multi_test_ideal.ini
attr iterationvars ""
attr iterationvarsf ""
attr measurement ""
attr network myuav.UAVNetwork_Multi
attr processid 14620
attr repetition 0
attr replication #0
attr resultdir results
attr runnumber 0
attr seedset 0
param *.configurator.addStaticRoutes false
param **.arp.typename "\"GlobalArp\""
param **.hostA[*].forwarding false
param **.hostB[*].forwarding false
param **.hostC[*].forwarding false
param **.hostA[*].multicastForwarding false
param **.hostB[*].multicastForwarding false
param **.hostC[*].multicastForwarding false
param **.hostRouters[*].forwarding true
param **.hostRouters[*].multicastForwarding true
param *.numHostsA 10
param *.numHostsB 10
param *.numHostsC 10
param *.configurator.config "xmldoc(\"multi_test.xml\")"
param *.configurator.dumpAddresses true
param *.configurator.dumpTopology true
param *.configurator.dumpLinks true
param *.configurator.dumpRoutes true
param *.configurator.dumpConfig "\"multi_test_dump.xml\""
param *.visualizer.osgVisualizer.typename "\"IntegratedOsgVisualizer\""
param *.visualizer.osgVisualizer.sceneVisualizer.clearColor "\"skyblue\""
param *.visualizer.osgVisualizer.sceneVisualizer.sceneImage "\"showcases/desert\""
param *.visualizer.osgVisualizer.sceneVisualizer.sceneImageSize 2000m
param *.visualizer.osgVisualizer.sceneVisualizer.axisLength 500m
param *.visualizer.osgVisualizer.sceneVisualizer.sceneMinX 0m
param *.visualizer.osgVisualizer.sceneVisualizer.sceneMinY 0m
param *.visualizer.osgVisualizer.sceneVisualizer.sceneMinZ 0m
param *.visualizer.osgVisualizer.sceneVisualizer.sceneMaxX 2000m
param *.visualizer.osgVisualizer.sceneVisualizer.sceneMaxY 2000m
param *.visualizer.osgVisualizer.sceneVisualizer.sceneMaxZ 1000m
param *.visualizer.*.dataLinkVisualizer.displayLinks true
param *.visualizer.*.dataLinkVisualizer.packetFilter "\"ping*\""
param *.visualizer.*.dataLinkVisualizer.nodeFilter "\"*\""
param *.visualizer.*.networkRouteVisualizer.displayRoutes true
param *.visualizer.*.networkRouteVisualizer.lineShift 0
param *.visualizer.*.networkRouteVisualizer.lineWidth 10
param *.visualizer.*.networkRouteVisualizer.packetFilter "\"ping*\""
param *.visualizer.*.mobilityVisualizer.displayMovementTrails true
param *.visualizer.*.mobilityVisualizer.animationSpeed 1
param **.host*.**.bitrate 1Mbps
param **.hostRouters[*].wlan[*].radio.transmitter.power 10mW
param **.host*.wlan[*].radio.transmitter.power 2mW
param *.host*.numApps 1
param **.hostA[*].app[*].continuous true
param **.hostB[*].app[*].continuous true
param **.hostC[*].app[*].continuous true
param **.hostRouters[*].app[*].count 1
param **.hostRouters[*].app[*].continuous true
param **.host*.app[*].typename "\"PingApp\""
param **.hostRouters[0].app[*].destAddr "\"hostRouters[1] hostRouters[2]\""
param **.hostRouters[1].app[*].destAddr "\"hostRouters[0] hostRouters[2]\""
param **.hostRouters[2].app[*].destAddr "\"hostRouters[0] hostRouters[1]\""
param **.hostRouters[*].app[*].startTime uniform(10s,15s)
param **.hostRouters[*].app[*].printPing true
param **.hostA[*].app[*].destAddr "\"hostRouters[0]\""
param **.hostA[*].app[*].startTime uniform(5s,8s)
param **.hostA[*].app[*].printPing true
param **.hostB[*].app[*].destAddr "\"hostRouters[1]\""
param **.hostB[*].app[*].startTime uniform(5s,8s)
param **.hostB[*].app[*].printPing true
param **.hostC[*].app[*].destAddr "\"hostRouters[2]\""
param **.hostC[*].app[*].startTime uniform(5s,8s)
param **.hostC[*].app[*].printPing true
param **.host*.mobility.initFromDisplayString false
param **.host*.mobility.typename "\"MassMobility\""
param **.host*.osgModel "\"3d/drone.ive.100.scale.0,0,90.rot\""
param **.host*.mobility.initialMovementHeading "uniform(0deg, 360deg)"
param **.host*.mobility.initialMovementElevation "uniform(-90deg, 90deg)"
param **.host*.mobility.rotationAxisAngle uniform(-10deg,10deg)
param **.host*.mobility.faceForward false
param **.hostRouters[*].mobility.speed truncnormal(50mps,8mps)
param **.hostRouters[*].mobility.changeInterval "truncnormal(2s, 1s)"
param **.hostRouters[*].mobility.angleDelta "normal(-20deg, 20deg)"
param **.host*.mobility.speed "truncnormal(20mps, 4mps)"
param **.host*.mobility.changeInterval "truncnormal(3s, 1s)"
param **.host*.mobility.angleDelta "normal(-10deg, 10deg)"
param **.host*.mobility.initialZ 200m
param **.host*.mobility.constraintAreaMinZ 100m
param **.host*.mobility.constraintAreaMaxZ 300m
param **.hostRouters[0].mobility.initialX 700m
param **.hostRouters[0].mobility.initialY 700m
param **.hostRouters[0].mobility.constraintAreaMinX 575m
param **.hostRouters[0].mobility.constraintAreaMaxX 825m
param **.hostRouters[0].mobility.constraintAreaMinY 575m
param **.hostRouters[0].mobility.constraintAreaMaxY 825m
param **.hostA[*].mobility.constraintAreaMinX 600m
param **.hostA[*].mobility.constraintAreaMaxX 800m
param **.hostA[*].mobility.constraintAreaMinY 600m
param **.hostA[*].mobility.constraintAreaMaxY 800m
param **.hostRouters[1].mobility.initialX 950m
param **.hostRouters[1].mobility.initialY 450m
param **.hostRouters[1].mobility.constraintAreaMinX 825m
param **.hostRouters[1].mobility.constraintAreaMaxX 1075m
param **.hostRouters[1].mobility.constraintAreaMinY 325m
param **.hostRouters[1].mobility.constraintAreaMaxY 575m
param **.hostB[*].mobility.constraintAreaMinX 850m
param **.hostB[*].mobility.constraintAreaMaxX 1050m
param **.hostB[*].mobility.constraintAreaMinY 350m
param **.hostB[*].mobility.constraintAreaMaxY 550m
param **.hostRouters[2].mobility.initialX 950m
param **.hostRouters[2].mobility.initialY 950m
param **.hostRouters[2].mobility.constraintAreaMinX 825m
param **.hostRouters[2].mobility.constraintAreaMaxX 1075m
param **.hostRouters[2].mobility.constraintAreaMinY 825m
param **.hostRouters[2].mobility.constraintAreaMaxY 1075m
param **.hostC[*].mobility.constraintAreaMinX 850m
param **.hostC[*].mobility.constraintAreaMaxX 1050m
param **.hostC[*].mobility.constraintAreaMinY 850m
param **.hostC[*].mobility.constraintAreaMaxY 1050m

vector 0 UAVNetwork_Multi.hostA[0].wlan[0].radio radioMode:vector ETV
attr interpolationmode sample-hold
attr source radioModeChanged
attr title "Radio mode, vector"
vector 1 UAVNetwork_Multi.hostA[0].wlan[0].radio radioChannel:vector ETV
attr interpolationmode sample-hold
attr source radioChannelChanged
attr title "Radio channel, vector"
vector 2 UAVNetwork_Multi.hostA[1].wlan[0].radio radioMode:vector ETV
attr interpolationmode sample-hold
attr source radioModeChanged
attr title "Radio mode, vector"
vector 3 UAVNetwork_Multi.hostA[1].wlan[0].radio radioChannel:vector ETV
attr interpolationmode sample-hold
attr source radioChannelChanged
attr title "Radio channel, vector"
vector 4 UAVNetwork_Multi.hostA[2].wlan[0].radio radioMode:vector ETV
attr interpolationmode sample-hold
attr source radioModeChanged
attr title "Radio mode, vector"
vector 5 UAVNetwork_Multi.hostA[2].wlan[0].radio radioChannel:vector ETV
attr interpolationmode sample-hold
attr source radioChannelChanged
attr title "Radio channel, vector"
vector 6 UAVNetwork_Multi.hostA[3].wlan[0].radio radioMode:vector ETV
attr interpolationmode sample-hold
attr source radioModeChanged
attr title "Radio mode, vector"
vector 7 UAVNetwork_Multi.hostA[3].wlan[0].radio radioChannel:vector ETV
attr interpolationmode sample-hold
attr source radioChannelChanged
attr title "Radio channel, vector"
vector 8 UAVNetwork_Multi.hostA[4].wlan[0].radio radioMode:vector ETV
attr interpolationmode sample-hold
attr source radioModeChanged
attr title "Radio mode, vector"
vector 9 UAVNetwork_Multi.hostA[4].wlan[0].radio radioChannel:vector ETV
attr interpolationmode sample-hold
attr source radioChannelChanged
attr title "Radio channel, vector"
vector 10 UAVNetwork_Multi.hostA[5].wlan[0].radio radioMode:vector ETV
attr interpolationmode sample-hold
attr source radioModeChanged
attr title "Radio mode, vector"
vector 11 UAVNetwork_Multi.hostA[5].wlan[0].radio radioChannel:vector ETV
attr interpolationmode sample-hold
attr source radioChannelChanged
attr title "Radio channel, vector"
vector 12 UAVNetwork_Multi.hostA[6].wlan[0].radio radioMode:vector ETV
attr interpolationmode sample-hold
attr source radioModeChanged
attr title "Radio mode, vector"
vector 13 UAVNetwork_Multi.hostA[6].wlan[0].radio radioChannel:vector ETV
attr interpolationmode sample-hold
attr source radioChannelChanged
attr title "Radio channel, vector"
vector 14 UAVNetwork_Multi.hostA[7].wlan[0].radio radioMode:vector ETV
attr interpolationmode sample-hold
attr source radioModeChanged
attr title "Radio mode, vector"
vector 15 UAVNetwork_Multi.hostA[7].wlan[0].radio radioChannel:vector ETV
attr interpolationmode sample-hold
attr source radioChannelChanged
attr title "Radio channel, vector"
vector 16 UAVNetwork_Multi.hostA[8].wlan[0].radio radioMode:vector ETV
attr interpolationmode sample-hold
attr source radioModeChanged
attr title "Radio mode, vector"
vector 17 UAVNetwork_Multi.hostA[8].wlan[0].radio radioChannel:vector ETV
attr interpolationmode sample-hold
attr source radioChannelChanged
attr title "Radio channel, vector"
vector 18 UAVNetwork_Multi.hostA[9].wlan[0].radio radioMode:vector ETV
attr interpolationmode sample-hold
attr source radioModeChanged
attr title "Radio mode, vector"
vector 19 UAVNetwork_Multi.hostA[9].wlan[0].radio radioChannel:vector ETV
attr interpolationmode sample-hold
attr source radioChannelChanged
attr title "Radio channel, vector"
vector 20 UAVNetwork_Multi.hostB[0].wlan[0].radio radioMode:vector ETV
attr interpolationmode sample-hold
attr source radioModeChanged
attr title "Radio mode, vector"
vector 21 UAVNetwork_Multi.hostB[0].wlan[0].radio radioChannel:vector ETV
attr interpolationmode sample-hold
attr source radioChannelChanged
attr title "Radio channel, vector"
vector 22 UAVNetwork_Multi.hostB[1].wlan[0].radio radioMode:vector ETV
attr interpolationmode sample-hold
attr source radioModeChanged
attr title "Radio mode, vector"
vector 23 UAVNetwork_Multi.hostB[1].wlan[0].radio radioChannel:vector ETV
attr interpolationmode sample-hold
attr source radioChannelChanged
attr title "Radio channel, vector"
vector 24 UAVNetwork_Multi.hostB[2].wlan[0].radio radioMode:vector ETV
attr interpolationmode sample-hold
attr source radioModeChanged
attr title "Radio mode, vector"
vector 25 UAVNetwork_Multi.hostB[2].wlan[0].radio radioChannel:vector ETV
attr interpolationmode sample-hold
attr source radioChannelChanged
attr title "Radio channel, vector"
vector 26 UAVNetwork_Multi.hostB[3].wlan[0].radio radioMode:vector ETV
attr interpolationmode sample-hold
attr source radioModeChanged
attr title "Radio mode, vector"
vector 27 UAVNetwork_Multi.hostB[3].wlan[0].radio radioChannel:vector ETV
attr interpolationmode sample-hold
attr source radioChannelChanged
attr title "Radio channel, vector"
vector 28 UAVNetwork_Multi.hostB[4].wlan[0].radio radioMode:vector ETV
attr interpolationmode sample-hold
attr source radioModeChanged
attr title "Radio mode, vector"
vector 29 UAVNetwork_Multi.hostB[4].wlan[0].radio radioChannel:vector ETV
attr interpolationmode sample-hold
attr source radioChannelChanged
attr title "Radio channel, vector"
vector 30 UAVNetwork_Multi.hostB[5].wlan[0].radio radioMode:vector ETV
attr interpolationmode sample-hold
attr source radioModeChanged
attr title "Radio mode, vector"
vector 31 UAVNetwork_Multi.hostB[5].wlan[0].radio radioChannel:vector ETV
attr interpolationmode sample-hold
attr source radioChannelChanged
attr title "Radio channel, vector"
vector 32 UAVNetwork_Multi.hostB[6].wlan[0].radio radioMode:vector ETV
attr interpolationmode sample-hold
attr source radioModeChanged
attr title "Radio mode, vector"
vector 33 UAVNetwork_Multi.hostB[6].wlan[0].radio radioChannel:vector ETV
attr interpolationmode sample-hold
attr source radioChannelChanged
attr title "Radio channel, vector"
vector 34 UAVNetwork_Multi.hostB[7].wlan[0].radio radioMode:vector ETV
attr interpolationmode sample-hold
attr source radioModeChanged
attr title "Radio mode, vector"
vector 35 UAVNetwork_Multi.hostB[7].wlan[0].radio radioChannel:vector ETV
attr interpolationmode sample-hold
attr source radioChannelChanged
attr title "Radio channel, vector"
vector 36 UAVNetwork_Multi.hostB[8].wlan[0].radio radioMode:vector ETV
attr interpolationmode sample-hold
attr source radioModeChanged
attr title "Radio mode, vector"
vector 37 UAVNetwork_Multi.hostB[8].wlan[0].radio radioChannel:vector ETV
attr interpolationmode sample-hold
attr source radioChannelChanged
attr title "Radio channel, vector"
vector 38 UAVNetwork_Multi.hostB[9].wlan[0].radio radioMode:vector ETV
attr interpolationmode sample-hold
attr source radioModeChanged
attr title "Radio mode, vector"
vector 39 UAVNetwork_Multi.hostB[9].wlan[0].radio radioChannel:vector ETV
attr interpolationmode sample-hold
attr source radioChannelChanged
attr title "Radio channel, vector"
vector 40 UAVNetwork_Multi.hostC[0].wlan[0].radio radioMode:vector ETV
attr interpolationmode sample-hold
attr source radioModeChanged
attr title "Radio mode, vector"
vector 41 UAVNetwork_Multi.hostC[0].wlan[0].radio radioChannel:vector ETV
attr interpolationmode sample-hold
attr source radioChannelChanged
attr title "Radio channel, vector"
vector 42 UAVNetwork_Multi.hostC[1].wlan[0].radio radioMode:vector ETV
attr interpolationmode sample-hold
attr source radioModeChanged
attr title "Radio mode, vector"
vector 43 UAVNetwork_Multi.hostC[1].wlan[0].radio radioChannel:vector ETV
attr interpolationmode sample-hold
attr source radioChannelChanged
attr title "Radio channel, vector"
vector 44 UAVNetwork_Multi.hostC[2].wlan[0].radio radioMode:vector ETV
attr interpolationmode sample-hold
attr source radioModeChanged
attr title "Radio mode, vector"
vector 45 UAVNetwork_Multi.hostC[2].wlan[0].radio radioChannel:vector ETV
attr interpolationmode sample-hold
attr source radioChannelChanged
attr title "Radio channel, vector"
vector 46 UAVNetwork_Multi.hostC[3].wlan[0].radio radioMode:vector ETV
attr interpolationmode sample-hold
attr source radioModeChanged
attr title "Radio mode, vector"
vector 47 UAVNetwork_Multi.hostC[3].wlan[0].radio radioChannel:vector ETV
attr interpolationmode sample-hold
attr source radioChannelChanged
attr title "Radio channel, vector"
vector 48 UAVNetwork_Multi.hostC[4].wlan[0].radio radioMode:vector ETV
attr interpolationmode sample-hold
attr source radioModeChanged
attr title "Radio mode, vector"
vector 49 UAVNetwork_Multi.hostC[4].wlan[0].radio radioChannel:vector ETV
attr interpolationmode sample-hold
attr source radioChannelChanged
attr title "Radio channel, vector"
vector 50 UAVNetwork_Multi.hostC[5].wlan[0].radio radioMode:vector ETV
attr interpolationmode sample-hold
attr source radioModeChanged
attr title "Radio mode, vector"
vector 51 UAVNetwork_Multi.hostC[5].wlan[0].radio radioChannel:vector ETV
attr interpolationmode sample-hold
attr source radioChannelChanged
attr title "Radio channel, vector"
vector 52 UAVNetwork_Multi.hostC[6].wlan[0].radio radioMode:vector ETV
attr interpolationmode sample-hold
attr source radioModeChanged
attr title "Radio mode, vector"
vector 53 UAVNetwork_Multi.hostC[6].wlan[0].radio radioChannel:vector ETV
attr interpolationmode sample-hold
attr source radioChannelChanged
attr title "Radio channel, vector"
vector 54 UAVNetwork_Multi.hostC[7].wlan[0].radio radioMode:vector ETV
attr interpolationmode sample-hold
attr source radioModeChanged
attr title "Radio mode, vector"
vector 55 UAVNetwork_Multi.hostC[7].wlan[0].radio radioChannel:vector ETV
attr interpolationmode sample-hold
attr source radioChannelChanged
attr title "Radio channel, vector"
vector 56 UAVNetwork_Multi.hostC[8].wlan[0].radio radioMode:vector ETV
attr interpolationmode sample-hold
attr source radioModeChanged
attr title "Radio mode, vector"
vector 57 UAVNetwork_Multi.hostC[8].wlan[0].radio radioChannel:vector ETV
attr interpolationmode sample-hold
attr source radioChannelChanged
attr title "Radio channel, vector"
vector 58 UAVNetwork_Multi.hostC[9].wlan[0].radio radioMode:vector ETV
attr interpolationmode sample-hold
attr source radioModeChanged
attr title "Radio mode, vector"
vector 59 UAVNetwork_Multi.hostC[9].wlan[0].radio radioChannel:vector ETV
attr interpolationmode sample-hold
attr source radioChannelChanged
attr title "Radio channel, vector"
vector 60 UAVNetwork_Multi.hostRouters[0].wlan[0].radio radioMode:vector ETV
attr interpolationmode sample-hold
attr source radioModeChanged
attr title "Radio mode, vector"
vector 61 UAVNetwork_Multi.hostRouters[0].wlan[0].radio radioChannel:vector ETV
attr interpolationmode sample-hold
attr source radioChannelChanged
attr title "Radio channel, vector"
vector 62 UAVNetwork_Multi.hostRouters[1].wlan[0].radio radioMode:vector ETV
attr interpolationmode sample-hold
attr source radioModeChanged
attr title "Radio mode, vector"
vector 63 UAVNetwork_Multi.hostRouters[1].wlan[0].radio radioChannel:vector ETV
attr interpolationmode sample-hold
attr source radioChannelChanged
attr title "Radio channel, vector"
vector 64 UAVNetwork_Multi.hostRouters[2].wlan[0].radio radioMode:vector ETV
attr interpolationmode sample-hold
attr source radioModeChanged
attr title "Radio mode, vector"
vector 65 UAVNetwork_Multi.hostRouters[2].wlan[0].radio radioChannel:vector ETV
attr interpolationmode sample-hold
attr source radioChannelChanged
attr title "Radio channel, vector"
vector 66 UAVNetwork_Multi.hostA[0].wlan[0].radio receptionState:vector ETV
attr interpolationmode sample-hold
attr source receptionStateChanged
attr title "Radio reception state, vector"
vector 67 UAVNetwork_Multi.hostA[0].wlan[0].mac.dcf.channelAccess.contention state:vector ETV
attr interpolationmode none
attr source stateChanged
attr title "contention state, vector"
vector 68 UAVNetwork_Multi.hostA[0].wlan[0].mac.hcf.edca.edcaf[0].contention state:vector ETV
attr interpolationmode none
attr source stateChanged
attr title "contention state, vector"
vector 69 UAVNetwork_Multi.hostA[0].wlan[0].mac.hcf.edca.edcaf[1].contention state:vector ETV
attr interpolationmode none
attr source stateChanged
attr title "contention state, vector"
vector 70 UAVNetwork_Multi.hostA[0].wlan[0].mac.hcf.edca.edcaf[2].contention state:vector ETV
attr interpolationmode none
attr source stateChanged
attr title "contention state, vector"
vector 71 UAVNetwork_Multi.hostA[0].wlan[0].mac.hcf.edca.edcaf[3].contention state:vector ETV
attr interpolationmode none
attr source stateChanged
attr title "contention state, vector"
vector 72 UAVNetwork_Multi.hostA[1].wlan[0].radio receptionState:vector ETV
attr interpolationmode sample-hold
attr source receptionStateChanged
attr title "Radio reception state, vector"
vector 73 UAVNetwork_Multi.hostA[1].wlan[0].mac.dcf.channelAccess.contention state:vector ETV
attr interpolationmode none
attr source stateChanged
attr title "contention state, vector"
vector 74 UAVNetwork_Multi.hostA[1].wlan[0].mac.hcf.edca.edcaf[0].contention state:vector ETV
attr interpolationmode none
attr source stateChanged
attr title "contention state, vector"
vector 75 UAVNetwork_Multi.hostA[1].wlan[0].mac.hcf.edca.edcaf[1].contention state:vector ETV
attr interpolationmode none
attr source stateChanged
attr title "contention state, vector"
vector 76 UAVNetwork_Multi.hostA[1].wlan[0].mac.hcf.edca.edcaf[2].contention state:vector ETV
attr interpolationmode none
attr source stateChanged
attr title "contention state, vector"
vector 77 UAVNetwork_Multi.hostA[1].wlan[0].mac.hcf.edca.edcaf[3].contention state:vector ETV
attr interpolationmode none
attr source stateChanged
attr title "contention state, vector"
vector 78 UAVNetwork_Multi.hostA[2].wlan[0].radio receptionState:vector ETV
attr interpolationmode sample-hold
attr source receptionStateChanged
attr title "Radio reception state, vector"
vector 79 UAVNetwork_Multi.hostA[2].wlan[0].mac.dcf.channelAccess.contention state:vector ETV
attr interpolationmode none
attr source stateChanged
attr title "contention state, vector"
vector 80 UAVNetwork_Multi.hostA[2].wlan[0].mac.hcf.edca.edcaf[0].contention state:vector ETV
attr interpolationmode none
attr source stateChanged
attr title "contention state, vector"
vector 81 UAVNetwork_Multi.hostA[2].wlan[0].mac.hcf.edca.edcaf[1].contention state:vector ETV
attr interpolationmode none
attr source stateChanged
attr title "contention state, vector"
vector 82 UAVNetwork_Multi.hostA[2].wlan[0].mac.hcf.edca.edcaf[2].contention state:vector ETV
attr interpolationmode none
attr source stateChanged
attr title "contention state, vector"
vector 83 UAVNetwork_Multi.hostA[2].wlan[0].mac.hcf.edca.edcaf[3].contention state:vector ETV
attr interpolationmode none
attr source stateChanged
attr title "contention state, vector"
vector 84 UAVNetwork_Multi.hostA[3].wlan[0].radio receptionState:vector ETV
attr interpolationmode sample-hold
attr source receptionStateChanged
attr title "Radio reception state, vector"
vector 85 UAVNetwork_Multi.hostA[3].wlan[0].mac.dcf.channelAccess.contention state:vector ETV
attr interpolationmode none
attr source stateChanged
attr title "contention state, vector"
vector 86 UAVNetwork_Multi.hostA[3].wlan[0].mac.hcf.edca.edcaf[0].contention state:vector ETV
attr interpolationmode none
attr source stateChanged
attr title "contention state, vector"
vector 87 UAVNetwork_Multi.hostA[3].wlan[0].mac.hcf.edca.edcaf[1].contention state:vector ETV
attr interpolationmode none
attr source stateChanged
attr title "contention state, vector"
vector 88 UAVNetwork_Multi.hostA[3].wlan[0].mac.hcf.edca.edcaf[2].contention state:vector ETV
attr interpolationmode none
attr source stateChanged
attr title "contention state, vector"
vector 89 UAVNetwork_Multi.hostA[3].wlan[0].mac.hcf.edca.edcaf[3].contention state:vector ETV
attr interpolationmode none
attr source stateChanged
attr title "contention state, vector"
vector 90 UAVNetwork_Multi.hostA[4].wlan[0].radio receptionState:vector ETV
attr interpolationmode sample-hold
attr source receptionStateChanged
attr title "Radio reception state, vector"
vector 91 UAVNetwork_Multi.hostA[4].wlan[0].mac.dcf.channelAccess.contention state:vector ETV
attr interpolationmode none
attr source stateChanged
attr title "contention state, vector"
vector 92 UAVNetwork_Multi.hostA[4].wlan[0].mac.hcf.edca.edcaf[0].contention state:vector ETV
attr interpolationmode none
attr source stateChanged
attr title "contention state, vector"
vector 93 UAVNetwork_Multi.hostA[4].wlan[0].mac.hcf.edca.edcaf[1].contention state:vector ETV
attr interpolationmode none
attr source stateChanged
attr title "contention state, vector"
vector 94 UAVNetwork_Multi.hostA[4].wlan[0].mac.hcf.edca.edcaf[2].contention state:vector ETV
attr interpolationmode none
attr source stateChanged
attr title "contention state, vector"
vector 95 UAVNetwork_Multi.hostA[4].wlan[0].mac.hcf.edca.edcaf[3].contention state:vector ETV
attr interpolationmode none
attr source stateChanged
attr title "contention state, vector"
vector 96 UAVNetwork_Multi.hostA[5].wlan[0].radio receptionState:vector ETV
attr interpolationmode sample-hold
attr source receptionStateChanged
attr title "Radio reception state, vector"
vector 97 UAVNetwork_Multi.hostA[5].wlan[0].mac.dcf.channelAccess.contention state:vector ETV
attr interpolationmode none
attr source stateChanged
attr title "contention state, vector"
vector 98 UAVNetwork_Multi.hostA[5].wlan[0].mac.hcf.edca.edcaf[0].contention state:vector ETV
attr interpolationmode none
attr source stateChanged
attr title "contention state, vector"
vector 99 UAVNetwork_Multi.hostA[5].wlan[0].mac.hcf.edca.edcaf[1].contention state:vector ETV
attr interpolationmode none
attr source stateChanged
attr title "contention state, vector"
vector 100 UAVNetwork_Multi.hostA[5].wlan[0].mac.hcf.edca.edcaf[2].contention state:vector ETV
attr interpolationmode none
attr source stateChanged
attr title "contention state, vector"
vector 101 UAVNetwork_Multi.hostA[5].wlan[0].mac.hcf.edca.edcaf[3].contention state:vector ETV
attr interpolationmode none
attr source stateChanged
attr title "contention state, vector"
vector 102 UAVNetwork_Multi.hostA[6].wlan[0].radio receptionState:vector ETV
attr interpolationmode sample-hold
attr source receptionStateChanged
attr title "Radio reception state, vector"
vector 103 UAVNetwork_Multi.hostA[6].wlan[0].mac.dcf.channelAccess.contention state:vector ETV
attr interpolationmode none
attr source stateChanged
attr title "contention state, vector"
vector 104 UAVNetwork_Multi.hostA[6].wlan[0].mac.hcf.edca.edcaf[0].contention state:vector ETV
attr interpolationmode none
attr source stateChanged
attr title "contention state, vector"
vector 105 UAVNetwork_Multi.hostA[6].wlan[0].mac.hcf.edca.edcaf[1].contention state:vector ETV
attr interpolationmode none
attr source stateChanged
attr title "contention state, vector"
vector 106 UAVNetwork_Multi.hostA[6].wlan[0].mac.hcf.edca.edcaf[2].contention state:vector ETV
attr interpolationmode none
attr source stateChanged
attr title "contention state, vector"
vector 107 UAVNetwork_Multi.hostA[6].wlan[0].mac.hcf.edca.edcaf[3].contention state:vector ETV
attr interpolationmode none
attr source stateChanged
attr title "contention state, vector"
vector 108 UAVNetwork_Multi.hostA[7].wlan[0].radio receptionState:vector ETV
attr interpolationmode sample-hold
attr source receptionStateChanged
attr title "Radio reception state, vector"
vector 109 UAVNetwork_Multi.hostA[7].wlan[0].mac.dcf.channelAccess.contention state:vector ETV
attr interpolationmode none
attr source stateChanged
attr title "contention state, vector"
vector 110 UAVNetwork_Multi.hostA[7].wlan[0].mac.hcf.edca.edcaf[0].contention state:vector ETV
attr interpolationmode none
attr source stateChanged
attr title "contention state, vector"
vector 111 UAVNetwork_Multi.hostA[7].wlan[0].mac.hcf.edca.edcaf[1].contention state:vector ETV
attr interpolationmode none
attr source stateChanged
attr title "contention state, vector"
vector 112 UAVNetwork_Multi.hostA[7].wlan[0].mac.hcf.edca.edcaf[2].contention state:vector ETV
attr interpolationmode none
attr source stateChanged
attr title "contention state, vector"
vector 113 UAVNetwork_Multi.hostA[7].wlan[0].mac.hcf.edca.edcaf[3].contention state:vector ETV
attr interpolationmode none
attr source stateChanged
attr title "contention state, vector"
vector 114 UAVNetwork_Multi.hostA[8].wlan[0].radio receptionState:vector ETV
attr interpolationmode sample-hold
attr source receptionStateChanged
attr title "Radio reception state, vector"
vector 115 UAVNetwork_Multi.hostA[8].wlan[0].mac.dcf.channelAccess.contention state:vector ETV
attr interpolationmode none
attr source stateChanged
attr title "contention state, vector"
vector 116 UAVNetwork_Multi.hostA[8].wlan[0].mac.hcf.edca.edcaf[0].contention state:vector ETV
attr interpolationmode none
attr source stateChanged
attr title "contention state, vector"
vector 117 UAVNetwork_Multi.hostA[8].wlan[0].mac.hcf.edca.edcaf[1].contention state:vector ETV
attr interpolationmode none
attr source stateChanged
attr title "contention state, vector"
vector 118 UAVNetwork_Multi.hostA[8].wlan[0].mac.hcf.edca.edcaf[2].contention state:vector ETV
attr interpolationmode none
attr source stateChanged
attr title "contention state, vector"
vector 119 UAVNetwork_Multi.hostA[8].wlan[0].mac.hcf.edca.edcaf[3].contention state:vector ETV
attr interpolationmode none
attr source stateChanged
attr title "contention state, vector"
vector 120 UAVNetwork_Multi.hostA[9].wlan[0].radio receptionState:vector ETV
attr interpolationmode sample-hold
attr source receptionStateChanged
attr title "Radio reception state, vector"
vector 121 UAVNetwork_Multi.hostA[9].wlan[0].mac.dcf.channelAccess.contention state:vector ETV
attr interpolationmode none
attr source stateChanged
attr title "contention state, vector"
vector 122 UAVNetwork_Multi.hostA[9].wlan[0].mac.hcf.edca.edcaf[0].contention state:vector ETV
attr interpolationmode none
attr source stateChanged
attr title "contention state, vector"
vector 123 UAVNetwork_Multi.hostA[9].wlan[0].mac.hcf.edca.edcaf[1].contention state:vector ETV
attr interpolationmode none
attr source stateChanged
attr title "contention state, vector"
vector 124 UAVNetwork_Multi.hostA[9].wlan[0].mac.hcf.edca.edcaf[2].contention state:vector ETV
attr interpolationmode none
attr source stateChanged
attr title "contention state, vector"
vector 125 UAVNetwork_Multi.hostA[9].wlan[0].mac.hcf.edca.edcaf[3].contention state:vector ETV
attr interpolationmode none
attr source stateChanged
attr title "contention state, vector"
vector 126 UAVNetwork_Multi.hostB[0].wlan[0].radio receptionState:vector ETV
attr interpolationmode sample-hold
attr source receptionStateChanged
attr title "Radio reception state, vector"
vector 127 UAVNetwork_Multi.hostB[0].wlan[0].mac.dcf.channelAccess.contention state:vector ETV
attr interpolationmode none
attr source stateChanged
attr title "contention state, vector"
vector 128 UAVNetwork_Multi.hostB[0].wlan[0].mac.hcf.edca.edcaf[0].contention state:vector ETV
attr interpolationmode none
attr source stateChanged
attr title "contention state, vector"
vector 129 UAVNetwork_Multi.hostB[0].wlan[0].mac.hcf.edca.edcaf[1].contention state:vector ETV
attr interpolationmode none
attr source stateChanged
attr title "contention state, vector"
vector 130 UAVNetwork_Multi.hostB[0].wlan[0].mac.hcf.edca.edcaf[2].contention state:vector ETV
attr interpolationmode none
attr source stateChanged
attr title "contention state, vector"
vector 131 UAVNetwork_Multi.hostB[0].wlan[0].mac.hcf.edca.edcaf[3].contention state:vector ETV
attr interpolationmode none
attr source stateChanged
attr title "contention state, vector"
vector 132 UAVNetwork_Multi.hostB[1].wlan[0].radio receptionState:vector ETV
attr interpolationmode sample-hold
attr source receptionStateChanged
attr title "Radio reception state, vector"
vector 133 UAVNetwork_Multi.hostB[1].wlan[0].mac.dcf.channelAccess.contention state:vector ETV
attr interpolationmode none
attr source stateChanged
attr title "contention state, vector"
vector 134 UAVNetwork_Multi.hostB[1].wlan[0].mac.hcf.edca.edcaf[0].contention state:vector ETV
attr interpolationmode none
attr source stateChanged
attr title "contention state, vector"
vector 135 UAVNetwork_Multi.hostB[1].wlan[0].mac.hcf.edca.edcaf[1].contention state:vector ETV
attr interpolationmode none
attr source stateChanged
attr title "contention state, vector"
vector 136 UAVNetwork_Multi.hostB[1].wlan[0].mac.hcf.edca.edcaf[2].contention state:vector ETV
attr interpolationmode none
attr source stateChanged
attr title "contention state, vector"
vector 137 UAVNetwork_Multi.hostB[1].wlan[0].mac.hcf.edca.edcaf[3].contention state:vector ETV
attr interpolationmode none
attr source stateChanged
attr title "contention state, vector"
vector 138 UAVNetwork_Multi.hostB[2].wlan[0].radio receptionState:vector ETV
attr interpolationmode sample-hold
attr source receptionStateChanged
attr title "Radio reception state, vector"
vector 139 UAVNetwork_Multi.hostB[2].wlan[0].mac.dcf.channelAccess.contention state:vector ETV
attr interpolationmode none
attr source stateChanged
attr title "contention state, vector"
vector 140 UAVNetwork_Multi.hostB[2].wlan[0].mac.hcf.edca.edcaf[0].contention state:vector ETV
attr interpolationmode none
attr source stateChanged
attr title "contention state, vector"
vector 141 UAVNetwork_Multi.hostB[2].wlan[0].mac.hcf.edca.edcaf[1].contention state:vector ETV
attr interpolationmode none
attr source stateChanged
attr title "contention state, vector"
vector 142 UAVNetwork_Multi.hostB[2].wlan[0].mac.hcf.edca.edcaf[2].contention state:vector ETV
attr interpolationmode none
attr source stateChanged
attr title "contention state, vector"
vector 143 UAVNetwork_Multi.hostB[2].wlan[0].mac.hcf.edca.edcaf[3].contention state:vector ETV
attr interpolationmode none
attr source stateChanged
attr title "contention state, vector"
vector 144 UAVNetwork_Multi.hostB[3].wlan[0].radio receptionState:vector ETV
attr interpolationmode sample-hold
attr source receptionStateChanged
attr title "Radio reception state, vector"
vector 145 UAVNetwork_Multi.hostB[3].wlan[0].mac.dcf.channelAccess.contention state:vector ETV
attr interpolationmode none
attr source stateChanged
attr title "contention state, vector"
vector 146 UAVNetwork_Multi.hostB[3].wlan[0].mac.hcf.edca.edcaf[0].contention state:vector ETV
attr interpolationmode none
attr source stateChanged
attr title "contention state, vector"
vector 147 UAVNetwork_Multi.hostB[3].wlan[0].mac.hcf.edca.edcaf[1].contention state:vector ETV
attr interpolationmode none
attr source stateChanged
attr title "contention state, vector"
vector 148 UAVNetwork_Multi.hostB[3].wlan[0].mac.hcf.edca.edcaf[2].contention state:vector ETV
attr interpolationmode none
attr source stateChanged
attr title "contention state, vector"
vector 149 UAVNetwork_Multi.hostB[3].wlan[0].mac.hcf.edca.edcaf[3].contention state:vector ETV
attr interpolationmode none
attr source stateChanged
attr title "contention state, vector"
vector 150 UAVNetwork_Multi.hostB[4].wlan[0].radio receptionState:vector ETV
attr interpolationmode sample-hold
attr source receptionStateChanged
attr title "Radio reception state, vector"
vector 151 UAVNetwork_Multi.hostB[4].wlan[0].mac.dcf.channelAccess.contention state:vector ETV
attr interpolationmode none
attr source stateChanged
attr title "contention state, vector"
vector 152 UAVNetwork_Multi.hostB[4].wlan[0].mac.hcf.edca.edcaf[0].contention state:vector ETV
attr interpolationmode none
attr source stateChanged
attr title "contention state, vector"
vector 153 UAVNetwork_Multi.hostB[4].wlan[0].mac.hcf.edca.edcaf[1].contention state:vector ETV
attr interpolationmode none
attr source stateChanged
attr title "contention state, vector"
vector 154 UAVNetwork_Multi.hostB[4].wlan[0].mac.hcf.edca.edcaf[2].contention state:vector ETV
attr interpolationmode none
attr source stateChanged
attr title "contention state, vector"
vector 155 UAVNetwork_Multi.hostB[4].wlan[0].mac.hcf.edca.edcaf[3].contention state:vector ETV
attr interpolationmode none
attr source stateChanged
attr title "contention state, vector"
vector 156 UAVNetwork_Multi.hostB[5].wlan[0].radio receptionState:vector ETV
attr interpolationmode sample-hold
attr source receptionStateChanged
attr title "Radio reception state, vector"
vector 157 UAVNetwork_Multi.hostB[5].wlan[0].mac.dcf.channelAccess.contention state:vector ETV
attr interpolationmode none
attr source stateChanged
attr title "contention state, vector"
vector 158 UAVNetwork_Multi.hostB[5].wlan[0].mac.hcf.edca.edcaf[0].contention state:vector ETV
attr interpolationmode none
attr source stateChanged
attr title "contention state, vector"
vector 159 UAVNetwork_Multi.hostB[5].wlan[0].mac.hcf.edca.edcaf[1].contention state:vector ETV
attr interpolationmode none
attr source stateChanged
attr title "contention state, vector"
vector 160 UAVNetwork_Multi.hostB[5].wlan[0].mac.hcf.edca.edcaf[2].contention state:vector ETV
attr interpolationmode none
attr source stateChanged
attr title "contention state, vector"
vector 161 UAVNetwork_Multi.hostB[5].wlan[0].mac.hcf.edca.edcaf[3].contention state:vector ETV
attr interpolationmode none
attr source stateChanged
attr title "contention state, vector"
vector 162 UAVNetwork_Multi.hostB[6].wlan[0].radio receptionState:vector ETV
attr interpolationmode sample-hold
attr source receptionStateChanged
attr title "Radio reception state, vector"
vector 163 UAVNetwork_Multi.hostB[6].wlan[0].mac.dcf.channelAccess.contention state:vector ETV
attr interpolationmode none
attr source stateChanged
attr title "contention state, vector"
vector 164 UAVNetwork_Multi.hostB[6].wlan[0].mac.hcf.edca.edcaf[0].contention state:vector ETV
attr interpolationmode none
attr source stateChanged
attr title "contention state, vector"
vector 165 UAVNetwork_Multi.hostB[6].wlan[0].mac.hcf.edca.edcaf[1].contention state:vector ETV
attr interpolationmode none
attr source stateChanged
attr title "contention state, vector"
vector 166 UAVNetwork_Multi.hostB[6].wlan[0].mac.hcf.edca.edcaf[2].contention state:vector ETV
attr interpolationmode none
attr source stateChanged
attr title "contention state, vector"
vector 167 UAVNetwork_Multi.hostB[6].wlan[0].mac.hcf.edca.edcaf[3].contention state:vector ETV
attr interpolationmode none
attr source stateChanged
attr title "contention state, vector"
vector 168 UAVNetwork_Multi.hostB[7].wlan[0].radio receptionState:vector ETV
attr interpolationmode sample-hold
attr source receptionStateChanged
attr title "Radio reception state, vector"
vector 169 UAVNetwork_Multi.hostB[7].wlan[0].mac.dcf.channelAccess.contention state:vector ETV
attr interpolationmode none
attr source stateChanged
attr title "contention state, vector"
vector 170 UAVNetwork_Multi.hostB[7].wlan[0].mac.hcf.edca.edcaf[0].contention state:vector ETV
attr interpolationmode none
attr source stateChanged
attr title "contention state, vector"
vector 171 UAVNetwork_Multi.hostB[7].wlan[0].mac.hcf.edca.edcaf[1].contention state:vector ETV
attr interpolationmode none
attr source stateChanged
attr title "contention state, vector"
vector 172 UAVNetwork_Multi.hostB[7].wlan[0].mac.hcf.edca.edcaf[2].contention state:vector ETV
attr interpolationmode none
attr source stateChanged
attr title "contention state, vector"
vector 173 UAVNetwork_Multi.hostB[7].wlan[0].mac.hcf.edca.edcaf[3].contention state:vector ETV
attr interpolationmode none
attr source stateChanged
attr title "contention state, vector"
vector 174 UAVNetwork_Multi.hostB[8].wlan[0].radio receptionState:vector ETV
attr interpolationmode sample-hold
attr source receptionStateChanged
attr title "Radio reception state, vector"
vector 175 UAVNetwork_Multi.hostB[8].wlan[0].mac.dcf.channelAccess.contention state:vector ETV
attr interpolationmode none
attr source stateChanged
attr title "contention state, vector"
vector 176 UAVNetwork_Multi.hostB[8].wlan[0].mac.hcf.edca.edcaf[0].contention state:vector ETV
attr interpolationmode none
attr source stateChanged
attr title "contention state, vector"
vector 177 UAVNetwork_Multi.hostB[8].wlan[0].mac.hcf.edca.edcaf[1].contention state:vector ETV
attr interpolationmode none
attr source stateChanged
attr title "contention state, vector"
vector 178 UAVNetwork_Multi.hostB[8].wlan[0].mac.hcf.edca.edcaf[2].contention state:vector ETV
attr interpolationmode none
attr source stateChanged
attr title "contention state, vector"
vector 179 UAVNetwork_Multi.hostB[8].wlan[0].mac.hcf.edca.edcaf[3].contention state:vector ETV
attr interpolationmode none
attr source stateChanged
attr title "contention state, vector"
vector 180 UAVNetwork_Multi.hostB[9].wlan[0].radio receptionState:vector ETV
attr interpolationmode sample-hold
attr source receptionStateChanged
attr title "Radio reception state, vector"
vector 181 UAVNetwork_Multi.hostB[9].wlan[0].mac.dcf.channelAccess.contention state:vector ETV
attr interpolationmode none
attr source stateChanged
attr title "contention state, vector"
vector 182 UAVNetwork_Multi.hostB[9].wlan[0].mac.hcf.edca.edcaf[0].contention state:vector ETV
attr interpolationmode none
attr source stateChanged
attr title "contention state, vector"
vector 183 UAVNetwork_Multi.hostB[9].wlan[0].mac.hcf.edca.edcaf[1].contention state:vector ETV
attr interpolationmode none
attr source stateChanged
attr title "contention state, vector"
vector 184 UAVNetwork_Multi.hostB[9].wlan[0].mac.hcf.edca.edcaf[2].contention state:vector ETV
attr interpolationmode none
attr source stateChanged
attr title "contention state, vector"
vector 185 UAVNetwork_Multi.hostB[9].wlan[0].mac.hcf.edca.edcaf[3].contention state:vector ETV
attr interpolationmode none
attr source stateChanged
attr title "contention state, vector"
vector 186 UAVNetwork_Multi.hostC[0].wlan[0].radio receptionState:vector ETV
attr interpolationmode sample-hold
attr source receptionStateChanged
attr title "Radio reception state, vector"
vector 187 UAVNetwork_Multi.hostC[0].wlan[0].mac.dcf.channelAccess.contention state:vector ETV
attr interpolationmode none
attr source stateChanged
attr title "contention state, vector"
vector 188 UAVNetwork_Multi.hostC[0].wlan[0].mac.hcf.edca.edcaf[0].contention state:vector ETV
attr interpolationmode none
attr source stateChanged
attr title "contention state, vector"
vector 189 UAVNetwork_Multi.hostC[0].wlan[0].mac.hcf.edca.edcaf[1].contention state:vector ETV
attr interpolationmode none
attr source stateChanged
attr title "contention state, vector"
vector 190 UAVNetwork_Multi.hostC[0].wlan[0].mac.hcf.edca.edcaf[2].contention state:vector ETV
attr interpolationmode none
attr source stateChanged
attr title "contention state, vector"
vector 191 UAVNetwork_Multi.hostC[0].wlan[0].mac.hcf.edca.edcaf[3].contention state:vector ETV
attr interpolationmode none
attr source stateChanged
attr title "contention state, vector"
vector 192 UAVNetwork_Multi.hostC[1].wlan[0].radio receptionState:vector ETV
attr interpolationmode sample-hold
attr source receptionStateChanged
attr title "Radio reception state, vector"
vector 193 UAVNetwork_Multi.hostC[1].wlan[0].mac.dcf.channelAccess.contention state:vector ETV
attr interpolationmode none
attr source stateChanged
attr title "contention state, vector"
vector 194 UAVNetwork_Multi.hostC[1].wlan[0].mac.hcf.edca.edcaf[0].contention state:vector ETV
attr interpolationmode none
attr source stateChanged
attr title "contention state, vector"
vector 195 UAVNetwork_Multi.hostC[1].wlan[0].mac.hcf.edca.edcaf[1].contention state:vector ETV
attr interpolationmode none
attr source stateChanged
attr title "contention state, vector"
vector 196 UAVNetwork_Multi.hostC[1].wlan[0].mac.hcf.edca.edcaf[2].contention state:vector ETV
attr interpolationmode none
attr source stateChanged
attr title "contention state, vector"
vector 197 UAVNetwork_Multi.hostC[1].wlan[0].mac.hcf.edca.edcaf[3].contention state:vector ETV
attr interpolationmode none
attr source stateChanged
attr title "contention state, vector"
vector 198 UAVNetwork_Multi.hostC[2].wlan[0].radio receptionState:vector ETV
attr interpolationmode sample-hold
attr source receptionStateChanged
attr title "Radio reception state, vector"
vector 199 UAVNetwork_Multi.hostC[2].wlan[0].mac.dcf.channelAccess.contention state:vector ETV
attr interpolationmode none
attr source stateChanged
attr title "contention state, vector"
vector 200 UAVNetwork_Multi.hostC[2].wlan[0].mac.hcf.edca.edcaf[0].contention state:vector ETV
attr interpolationmode none
attr source stateChanged
attr title "contention state, vector"
vector 201 UAVNetwork_Multi.hostC[2].wlan[0].mac.hcf.edca.edcaf[1].contention state:vector ETV
attr interpolationmode none
attr source stateChanged
attr title "contention state, vector"
vector 202 UAVNetwork_Multi.hostC[2].wlan[0].mac.hcf.edca.edcaf[2].contention state:vector ETV
attr interpolationmode none
attr source stateChanged
attr title "contention state, vector"
vector 203 UAVNetwork_Multi.hostC[2].wlan[0].mac.hcf.edca.edcaf[3].contention state:vector ETV
attr interpolationmode none
attr source stateChanged
attr title "contention state, vector"
vector 204 UAVNetwork_Multi.hostC[3].wlan[0].radio receptionState:vector ETV
attr interpolationmode sample-hold
attr source receptionStateChanged
attr title "Radio reception state, vector"
vector 205 UAVNetwork_Multi.hostC[3].wlan[0].mac.dcf.channelAccess.contention state:vector ETV
attr interpolationmode none
attr source stateChanged
attr title "contention state, vector"
vector 206 UAVNetwork_Multi.hostC[3].wlan[0].mac.hcf.edca.edcaf[0].contention state:vector ETV
attr interpolationmode none
attr source stateChanged
attr title "contention state, vector"
vector 207 UAVNetwork_Multi.hostC[3].wlan[0].mac.hcf.edca.edcaf[1].contention state:vector ETV
attr interpolationmode none
attr source stateChanged
attr title "contention state, vector"
vector 208 UAVNetwork_Multi.hostC[3].wlan[0].mac.hcf.edca.edcaf[2].contention state:vector ETV
attr interpolationmode none
attr source stateChanged
attr title "contention state, vector"
vector 209 UAVNetwork_Multi.hostC[3].wlan[0].mac.hcf.edca.edcaf[3].contention state:vector ETV
attr interpolationmode none
attr source stateChanged
attr title "contention state, vector"
vector 210 UAVNetwork_Multi.hostC[4].wlan[0].radio receptionState:vector ETV
attr interpolationmode sample-hold
attr source receptionStateChanged
attr title "Radio reception state, vector"
vector 211 UAVNetwork_Multi.hostC[4].wlan[0].mac.dcf.channelAccess.contention state:vector ETV
attr interpolationmode none
attr source stateChanged
attr title "contention state, vector"
vector 212 UAVNetwork_Multi.hostC[4].wlan[0].mac.hcf.edca.edcaf[0].contention state:vector ETV
attr interpolationmode none
attr source stateChanged
attr title "contention state, vector"
vector 213 UAVNetwork_Multi.hostC[4].wlan[0].mac.hcf.edca.edcaf[1].contention state:vector ETV
attr interpolationmode none
attr source stateChanged
attr title "contention state, vector"
vector 214 UAVNetwork_Multi.hostC[4].wlan[0].mac.hcf.edca.edcaf[2].contention state:vector ETV
attr interpolationmode none
attr source stateChanged
attr title "contention state, vector"
vector 215 UAVNetwork_Multi.hostC[4].wlan[0].mac.hcf.edca.edcaf[3].contention state:vector ETV
attr interpolationmode none
attr source stateChanged
attr title "contention state, vector"
vector 216 UAVNetwork_Multi.hostC[5].wlan[0].radio receptionState:vector ETV
attr interpolationmode sample-hold
attr source receptionStateChanged
attr title "Radio reception state, vector"
vector 217 UAVNetwork_Multi.hostC[5].wlan[0].mac.dcf.channelAccess.contention state:vector ETV
attr interpolationmode none
attr source stateChanged
attr title "contention state, vector"
vector 218 UAVNetwork_Multi.hostC[5].wlan[0].mac.hcf.edca.edcaf[0].contention state:vector ETV
attr interpolationmode none
attr source stateChanged
attr title "contention state, vector"
vector 219 UAVNetwork_Multi.hostC[5].wlan[0].mac.hcf.edca.edcaf[1].contention state:vector ETV
attr interpolationmode none
attr source stateChanged
attr title "contention state, vector"
vector 220 UAVNetwork_Multi.hostC[5].wlan[0].mac.hcf.edca.edcaf[2].contention state:vector ETV
attr interpolationmode none
attr source stateChanged
attr title "contention state, vector"
vector 221 UAVNetwork_Multi.hostC[5].wlan[0].mac.hcf.edca.edcaf[3].contention state:vector ETV
attr interpolationmode none
attr source stateChanged
attr title "contention state, vector"
vector 222 UAVNetwork_Multi.hostC[6].wlan[0].radio receptionState:vector ETV
attr interpolationmode sample-hold
attr source receptionStateChanged
attr title "Radio reception state, vector"
vector 223 UAVNetwork_Multi.hostC[6].wlan[0].mac.dcf.channelAccess.contention state:vector ETV
attr interpolationmode none
attr source stateChanged
attr title "contention state, vector"
vector 224 UAVNetwork_Multi.hostC[6].wlan[0].mac.hcf.edca.edcaf[0].contention state:vector ETV
attr interpolationmode none
attr source stateChanged
attr title "contention state, vector"
vector 225 UAVNetwork_Multi.hostC[6].wlan[0].mac.hcf.edca.edcaf[1].contention state:vector ETV
attr interpolationmode none
attr source stateChanged
attr title "contention state, vector"
vector 226 UAVNetwork_Multi.hostC[6].wlan[0].mac.hcf.edca.edcaf[2].contention state:vector ETV
attr interpolationmode none
attr source stateChanged
attr title "contention state, vector"
vector 227 UAVNetwork_Multi.hostC[6].wlan[0].mac.hcf.edca.edcaf[3].contention state:vector ETV
attr interpolationmode none
attr source stateChanged
attr title "contention state, vector"
vector 228 UAVNetwork_Multi.hostC[7].wlan[0].radio receptionState:vector ETV
attr interpolationmode sample-hold
attr source receptionStateChanged
attr title "Radio reception state, vector"
vector 229 UAVNetwork_Multi.hostC[7].wlan[0].mac.dcf.channelAccess.contention state:vector ETV
attr interpolationmode none
attr source stateChanged
attr title "contention state, vector"
vector 230 UAVNetwork_Multi.hostC[7].wlan[0].mac.hcf.edca.edcaf[0].contention state:vector ETV
attr interpolationmode none
attr source stateChanged
attr title "contention state, vector"
vector 231 UAVNetwork_Multi.hostC[7].wlan[0].mac.hcf.edca.edcaf[1].contention state:vector ETV
attr interpolationmode none
attr source stateChanged
attr title "contention state, vector"
vector 232 UAVNetwork_Multi.hostC[7].wlan[0].mac.hcf.edca.edcaf[2].contention state:vector ETV
attr interpolationmode none
attr source stateChanged
attr title "contention state, vector"
vector 233 UAVNetwork_Multi.hostC[7].wlan[0].mac.hcf.edca.edcaf[3].contention state:vector ETV
attr interpolationmode none
attr source stateChanged
attr title "contention state, vector"
vector 234 UAVNetwork_Multi.hostC[8].wlan[0].radio receptionState:vector ETV
attr interpolationmode sample-hold
attr source receptionStateChanged
attr title "Radio reception state, vector"
vector 235 UAVNetwork_Multi.hostC[8].wlan[0].mac.dcf.channelAccess.contention state:vector ETV
attr interpolationmode none
attr source stateChanged
attr title "contention state, vector"
vector 236 UAVNetwork_Multi.hostC[8].wlan[0].mac.hcf.edca.edcaf[0].contention state:vector ETV
attr interpolationmode none
attr source stateChanged
attr title "contention state, vector"
vector 237 UAVNetwork_Multi.hostC[8].wlan[0].mac.hcf.edca.edcaf[1].contention state:vector ETV
attr interpolationmode none
attr source stateChanged
attr title "contention state, vector"
vector 238 UAVNetwork_Multi.hostC[8].wlan[0].mac.hcf.edca.edcaf[2].contention state:vector ETV
attr interpolationmode none
attr source stateChanged
attr title "contention state, vector"
vector 239 UAVNetwork_Multi.hostC[8].wlan[0].mac.hcf.edca.edcaf[3].contention state:vector ETV
attr interpolationmode none
attr source stateChanged
attr title "contention state, vector"
vector 240 UAVNetwork_Multi.hostC[9].wlan[0].radio receptionState:vector ETV
attr interpolationmode sample-hold
attr source receptionStateChanged
attr title "Radio reception state, vector"
vector 241 UAVNetwork_Multi.hostC[9].wlan[0].mac.dcf.channelAccess.contention state:vector ETV
attr interpolationmode none
attr source stateChanged
attr title "contention state, vector"
vector 242 UAVNetwork_Multi.hostC[9].wlan[0].mac.hcf.edca.edcaf[0].contention state:vector ETV
attr interpolationmode none
attr source stateChanged
attr title "contention state, vector"
vector 243 UAVNetwork_Multi.hostC[9].wlan[0].mac.hcf.edca.edcaf[1].contention state:vector ETV
attr interpolationmode none
attr source stateChanged
attr title "contention state, vector"
vector 244 UAVNetwork_Multi.hostC[9].wlan[0].mac.hcf.edca.edcaf[2].contention state:vector ETV
attr interpolationmode none
attr source stateChanged
attr title "contention state, vector"
vector 245 UAVNetwork_Multi.hostC[9].wlan[0].mac.hcf.edca.edcaf[3].contention state:vector ETV
attr interpolationmode none
attr source stateChanged
attr title "contention state, vector"
vector 246 UAVNetwork_Multi.hostRouters[0].wlan[0].radio receptionState:vector ETV
attr interpolationmode sample-hold
attr source receptionStateChanged
attr title "Radio reception state, vector"
vector 247 UAVNetwork_Multi.hostRouters[0].wlan[0].mac.dcf.channelAccess.contention state:vector ETV
attr interpolationmode none
attr source stateChanged
attr title "contention state, vector"
vector 248 UAVNetwork_Multi.hostRouters[0].wlan[0].mac.hcf.edca.edcaf[0].contention state:vector ETV
attr interpolationmode none
attr source stateChanged
attr title "contention state, vector"
vector 249 UAVNetwork_Multi.hostRouters[0].wlan[0].mac.hcf.edca.edcaf[1].contention state:vector ETV
attr interpolationmode none
attr source stateChanged
attr title "contention state, vector"
vector 250 UAVNetwork_Multi.hostRouters[0].wlan[0].mac.hcf.edca.edcaf[2].contention state:vector ETV
attr interpolationmode none
attr source stateChanged
attr title "contention state, vector"
vector 251 UAVNetwork_Multi.hostRouters[0].wlan[0].mac.hcf.edca.edcaf[3].contention state:vector ETV
attr interpolationmode none
attr source stateChanged
attr title "contention state, vector"
vector 252 UAVNetwork_Multi.hostRouters[1].wlan[0].radio receptionState:vector ETV
attr interpolationmode sample-hold
attr source receptionStateChanged
attr title "Radio reception state, vector"
vector 253 UAVNetwork_Multi.hostRouters[1].wlan[0].mac.dcf.channelAccess.contention state:vector ETV
attr interpolationmode none
attr source stateChanged
attr title "contention state, vector"
vector 254 UAVNetwork_Multi.hostRouters[1].wlan[0].mac.hcf.edca.edcaf[0].contention state:vector ETV
attr interpolationmode none
attr source stateChanged
attr title "contention state, vector"
vector 255 UAVNetwork_Multi.hostRouters[1].wlan[0].mac.hcf.edca.edcaf[1].contention state:vector ETV
attr interpolationmode none
attr source stateChanged
attr title "contention state, vector"
vector 256 UAVNetwork_Multi.hostRouters[1].wlan[0].mac.hcf.edca.edcaf[2].contention state:vector ETV
attr interpolationmode none
attr source stateChanged
attr title "contention state, vector"
vector 257 UAVNetwork_Multi.hostRouters[1].wlan[0].mac.hcf.edca.edcaf[3].contention state:vector ETV
attr interpolationmode none
attr source stateChanged
attr title "contention state, vector"
vector 258 UAVNetwork_Multi.hostRouters[2].wlan[0].radio receptionState:vector ETV
attr interpolationmode sample-hold
attr source receptionStateChanged
attr title "Radio reception state, vector"
vector 259 UAVNetwork_Multi.hostRouters[2].wlan[0].mac.dcf.channelAccess.contention state:vector ETV
attr interpolationmode none
attr source stateChanged
attr title "contention state, vector"
vector 260 UAVNetwork_Multi.hostRouters[2].wlan[0].mac.hcf.edca.edcaf[0].contention state:vector ETV
attr interpolationmode none
attr source stateChanged
attr title "contention state, vector"
vector 261 UAVNetwork_Multi.hostRouters[2].wlan[0].mac.hcf.edca.edcaf[1].contention state:vector ETV
attr interpolationmode none
attr source stateChanged
attr title "contention state, vector"
vector 262 UAVNetwork_Multi.hostRouters[2].wlan[0].mac.hcf.edca.edcaf[2].contention state:vector ETV
attr interpolationmode none
attr source stateChanged
attr title "contention state, vector"
vector 263 UAVNetwork_Multi.hostRouters[2].wlan[0].mac.hcf.edca.edcaf[3].contention state:vector ETV
attr interpolationmode none
attr source stateChanged
attr title "contention state, vector"
vector 264 UAVNetwork_Multi.hostRouters[0].wlan[0].mac rcvdPkFromHl:vector(packetBytes) ETV
attr interpolationmode none
attr source packetReceivedFromUpper
attr title "packets received from higher layer, vector(packetBytes)"
vector 265 UAVNetwork_Multi.hostRouters[1].wlan[0].mac rcvdPkFromHl:vector(packetBytes) ETV
attr interpolationmode none
attr source packetReceivedFromUpper
attr title "packets received from higher layer, vector(packetBytes)"
vector 266 UAVNetwork_Multi.hostRouters[2].wlan[0].mac rcvdPkFromHl:vector(packetBytes) ETV
attr interpolationmode none
attr source packetReceivedFromUpper
attr title "packets received from higher layer, vector(packetBytes)"
vector 267 UAVNetwork_Multi.hostRouters[2].wlan[0].mac sentDownPk:vector(packetBytes) ETV
attr interpolationmode none
attr source packetSentToLower
attr title "packets sent to lower layer, vector(packetBytes)"
vector 268 UAVNetwork_Multi.hostRouters[2].wlan[0].radio transmissionState:vector ETV
attr interpolationmode sample-hold
attr source transmissionStateChanged
attr title "Radio transmission state, vector"
vector 269 UAVNetwork_Multi.hostC[7].wlan[0].mac rcvdPkFromLl:vector(packetBytes) ETV
attr interpolationmode none
attr source packetReceivedFromLower
attr title "packets received from lower layer, vector(packetBytes)"
vector 270 UAVNetwork_Multi.hostC[7].wlan[0].mac passedUpPk:vector(packetBytes) ETV
attr interpolationmode none
attr source packetSentToUpper
attr title "packets passed to higher layer, vector(packetBytes)"
vector 271 UAVNetwork_Multi.hostC[8].wlan[0].mac rcvdPkFromLl:vector(packetBytes) ETV
attr interpolationmode none
attr source packetReceivedFromLower
attr title "packets received from lower layer, vector(packetBytes)"
vector 272 UAVNetwork_Multi.hostC[8].wlan[0].mac passedUpPk:vector(packetBytes) ETV
attr interpolationmode none
attr source packetSentToUpper
attr title "packets passed to higher layer, vector(packetBytes)"
vector 273 UAVNetwork_Multi.hostC[1].wlan[0].mac rcvdPkFromLl:vector(packetBytes) ETV
attr interpolationmode none
attr source packetReceivedFromLower
attr title "packets received from lower layer, vector(packetBytes)"
vector 274 UAVNetwork_Multi.hostC[1].wlan[0].mac passedUpPk:vector(packetBytes) ETV
attr interpolationmode none
attr source packetSentToUpper
attr title "packets passed to higher layer, vector(packetBytes)"
vector 275 UAVNetwork_Multi.hostC[9].wlan[0].mac rcvdPkFromLl:vector(packetBytes) ETV
attr interpolationmode none
attr source packetReceivedFromLower
attr title "packets received from lower layer, vector(packetBytes)"
vector 276 UAVNetwork_Multi.hostC[9].wlan[0].mac passedUpPk:vector(packetBytes) ETV
attr interpolationmode none
attr source packetSentToUpper
attr title "packets passed to higher layer, vector(packetBytes)"
vector 277 UAVNetwork_Multi.hostC[4].wlan[0].mac rcvdPkFromLl:vector(packetBytes) ETV
attr interpolationmode none
attr source packetReceivedFromLower
attr title "packets received from lower layer, vector(packetBytes)"
vector 278 UAVNetwork_Multi.hostC[4].wlan[0].mac passedUpPk:vector(packetBytes) ETV
attr interpolationmode none
attr source packetSentToUpper
attr title "packets passed to higher layer, vector(packetBytes)"
vector 279 UAVNetwork_Multi.hostC[6].wlan[0].mac rcvdPkFromLl:vector(packetBytes) ETV
attr interpolationmode none
attr source packetReceivedFromLower
attr title "packets received from lower layer, vector(packetBytes)"
vector 280 UAVNetwork_Multi.hostC[6].wlan[0].mac passedUpPk:vector(packetBytes) ETV
attr interpolationmode none
attr source packetSentToUpper
attr title "packets passed to higher layer, vector(packetBytes)"
vector 281 UAVNetwork_Multi.hostC[0].wlan[0].mac rcvdPkFromLl:vector(packetBytes) ETV
attr interpolationmode none
attr source packetReceivedFromLower
attr title "packets received from lower layer, vector(packetBytes)"
vector 282 UAVNetwork_Multi.hostC[0].wlan[0].mac passedUpPk:vector(packetBytes) ETV
attr interpolationmode none
attr source packetSentToUpper
attr title "packets passed to higher layer, vector(packetBytes)"
vector 283 UAVNetwork_Multi.hostC[3].wlan[0].mac rcvdPkFromLl:vector(packetBytes) ETV
attr interpolationmode none
attr source packetReceivedFromLower
attr title "packets received from lower layer, vector(packetBytes)"
vector 284 UAVNetwork_Multi.hostC[3].wlan[0].mac passedUpPk:vector(packetBytes) ETV
attr interpolationmode none
attr source packetSentToUpper
attr title "packets passed to higher layer, vector(packetBytes)"
vector 285 UAVNetwork_Multi.hostC[2].wlan[0].mac rcvdPkFromLl:vector(packetBytes) ETV
attr interpolationmode none
attr source packetReceivedFromLower
attr title "packets received from lower layer, vector(packetBytes)"
vector 286 UAVNetwork_Multi.hostC[2].wlan[0].mac passedUpPk:vector(packetBytes) ETV
attr interpolationmode none
attr source packetSentToUpper
attr title "packets passed to higher layer, vector(packetBytes)"
vector 287 UAVNetwork_Multi.hostC[5].wlan[0].mac rcvdPkFromLl:vector(packetBytes) ETV
attr interpolationmode none
attr source packetReceivedFromLower
attr title "packets received from lower layer, vector(packetBytes)"
vector 288 UAVNetwork_Multi.hostC[5].wlan[0].mac passedUpPk:vector(packetBytes) ETV
attr interpolationmode none
attr source packetSentToUpper
attr title "packets passed to higher layer, vector(packetBytes)"
vector 289 UAVNetwork_Multi.hostA[0].wlan[0].mac rcvdPkFromLl:vector(packetBytes) ETV
attr interpolationmode none
attr source packetReceivedFromLower
attr title "packets received from lower layer, vector(packetBytes)"
vector 290 UAVNetwork_Multi.hostA[0].wlan[0].mac passedUpPk:vector(packetBytes) ETV
attr interpolationmode none
attr source packetSentToUpper
attr title "packets passed to higher layer, vector(packetBytes)"
vector 291 UAVNetwork_Multi.hostA[4].wlan[0].mac rcvdPkFromLl:vector(packetBytes) ETV
attr interpolationmode none
attr source packetReceivedFromLower
attr title "packets received from lower layer, vector(packetBytes)"
vector 292 UAVNetwork_Multi.hostA[4].wlan[0].mac passedUpPk:vector(packetBytes) ETV
attr interpolationmode none
attr source packetSentToUpper
attr title "packets passed to higher layer, vector(packetBytes)"
vector 293 UAVNetwork_Multi.hostRouters[0].wlan[0].mac rcvdPkFromLl:vector(packetBytes) ETV
attr interpolationmode none
attr source packetReceivedFromLower
attr title "packets received from lower layer, vector(packetBytes)"
vector 294 UAVNetwork_Multi.hostRouters[0].wlan[0].mac passedUpPk:vector(packetBytes) ETV
attr interpolationmode none
attr source packetSentToUpper
attr title "packets passed to higher layer, vector(packetBytes)"
vector 295 UAVNetwork_Multi.hostA[9].wlan[0].mac rcvdPkFromLl:vector(packetBytes) ETV
attr interpolationmode none
attr source packetReceivedFromLower
attr title "packets received from lower layer, vector(packetBytes)"
vector 296 UAVNetwork_Multi.hostA[9].wlan[0].mac passedUpPk:vector(packetBytes) ETV
attr interpolationmode none
attr source packetSentToUpper
attr title "packets passed to higher layer, vector(packetBytes)"
vector 297 UAVNetwork_Multi.hostA[8].wlan[0].mac rcvdPkFromLl:vector(packetBytes) ETV
attr interpolationmode none
attr source packetReceivedFromLower
attr title "packets received from lower layer, vector(packetBytes)"
vector 298 UAVNetwork_Multi.hostA[8].wlan[0].mac passedUpPk:vector(packetBytes) ETV
attr interpolationmode none
attr source packetSentToUpper
attr title "packets passed to higher layer, vector(packetBytes)"
vector 299 UAVNetwork_Multi.hostA[5].wlan[0].mac rcvdPkFromLl:vector(packetBytes) ETV
attr interpolationmode none
attr source packetReceivedFromLower
attr title "packets received from lower layer, vector(packetBytes)"
vector 300 UAVNetwork_Multi.hostA[5].wlan[0].mac passedUpPk:vector(packetBytes) ETV
attr interpolationmode none
attr source packetSentToUpper
attr title "packets passed to higher layer, vector(packetBytes)"
vector 301 UAVNetwork_Multi.hostA[6].wlan[0].mac rcvdPkFromLl:vector(packetBytes) ETV
attr interpolationmode none
attr source packetReceivedFromLower
attr title "packets received from lower layer, vector(packetBytes)"
vector 302 UAVNetwork_Multi.hostA[6].wlan[0].mac passedUpPk:vector(packetBytes) ETV
attr interpolationmode none
attr source packetSentToUpper
attr title "packets passed to higher layer, vector(packetBytes)"
vector 303 UAVNetwork_Multi.hostA[3].wlan[0].mac rcvdPkFromLl:vector(packetBytes) ETV
attr interpolationmode none
attr source packetReceivedFromLower
attr title "packets received from lower layer, vector(packetBytes)"
vector 304 UAVNetwork_Multi.hostA[3].wlan[0].mac passedUpPk:vector(packetBytes) ETV
attr interpolationmode none
attr source packetSentToUpper
attr title "packets passed to higher layer, vector(packetBytes)"
vector 305 UAVNetwork_Multi.hostA[7].wlan[0].mac rcvdPkFromLl:vector(packetBytes) ETV
attr interpolationmode none
attr source packetReceivedFromLower
attr title "packets received from lower layer, vector(packetBytes)"
vector 306 UAVNetwork_Multi.hostA[7].wlan[0].mac passedUpPk:vector(packetBytes) ETV
attr interpolationmode none
attr source packetSentToUpper
attr title "packets passed to higher layer, vector(packetBytes)"
vector 307 UAVNetwork_Multi.hostB[2].wlan[0].mac rcvdPkFromLl:vector(packetBytes) ETV
attr interpolationmode none
attr source packetReceivedFromLower
attr title "packets received from lower layer, vector(packetBytes)"
vector 308 UAVNetwork_Multi.hostB[2].wlan[0].mac passedUpPk:vector(packetBytes) ETV
attr interpolationmode none
attr source packetSentToUpper
attr title "packets passed to higher layer, vector(packetBytes)"
vector 309 UAVNetwork_Multi.hostA[2].wlan[0].mac rcvdPkFromLl:vector(packetBytes) ETV
attr interpolationmode none
attr source packetReceivedFromLower
attr title "packets received from lower layer, vector(packetBytes)"
vector 310 UAVNetwork_Multi.hostA[2].wlan[0].mac passedUpPk:vector(packetBytes) ETV
attr interpolationmode none
attr source packetSentToUpper
attr title "packets passed to higher layer, vector(packetBytes)"
vector 311 UAVNetwork_Multi.hostB[3].wlan[0].mac rcvdPkFromLl:vector(packetBytes) ETV
attr interpolationmode none
attr source packetReceivedFromLower
attr title "packets received from lower layer, vector(packetBytes)"
vector 312 UAVNetwork_Multi.hostB[3].wlan[0].mac passedUpPk:vector(packetBytes) ETV
attr interpolationmode none
attr source packetSentToUpper
attr title "packets passed to higher layer, vector(packetBytes)"
vector 313 UAVNetwork_Multi.hostB[8].wlan[0].mac rcvdPkFromLl:vector(packetBytes) ETV
attr interpolationmode none
attr source packetReceivedFromLower
attr title "packets received from lower layer, vector(packetBytes)"
vector 314 UAVNetwork_Multi.hostB[8].wlan[0].mac passedUpPk:vector(packetBytes) ETV
attr interpolationmode none
attr source packetSentToUpper
attr title "packets passed to higher layer, vector(packetBytes)"
vector 315 UAVNetwork_Multi.hostB[0].wlan[0].mac rcvdPkFromLl:vector(packetBytes) ETV
attr interpolationmode none
attr source packetReceivedFromLower
attr title "packets received from lower layer, vector(packetBytes)"
vector 316 UAVNetwork_Multi.hostB[0].wlan[0].mac passedUpPk:vector(packetBytes) ETV
attr interpolationmode none
attr source packetSentToUpper
attr title "packets passed to higher layer, vector(packetBytes)"
vector 317 UAVNetwork_Multi.hostA[1].wlan[0].mac rcvdPkFromLl:vector(packetBytes) ETV
attr interpolationmode none
attr source packetReceivedFromLower
attr title "packets received from lower layer, vector(packetBytes)"
vector 318 UAVNetwork_Multi.hostA[1].wlan[0].mac passedUpPk:vector(packetBytes) ETV
attr interpolationmode none
attr source packetSentToUpper
attr title "packets passed to higher layer, vector(packetBytes)"
vector 319 UAVNetwork_Multi.hostB[5].wlan[0].mac rcvdPkFromLl:vector(packetBytes) ETV
attr interpolationmode none
attr source packetReceivedFromLower
attr title "packets received from lower layer, vector(packetBytes)"
vector 320 UAVNetwork_Multi.hostB[5].wlan[0].mac passedUpPk:vector(packetBytes) ETV
attr interpolationmode none
attr source packetSentToUpper
attr title "packets passed to higher layer, vector(packetBytes)"
vector 321 UAVNetwork_Multi.hostRouters[1].wlan[0].mac rcvdPkFromLl:vector(packetBytes) ETV
attr interpolationmode none
attr source packetReceivedFromLower
attr title "packets received from lower layer, vector(packetBytes)"
vector 322 UAVNetwork_Multi.hostRouters[1].wlan[0].mac passedUpPk:vector(packetBytes) ETV
attr interpolationmode none
attr source packetSentToUpper
attr title "packets passed to higher layer, vector(packetBytes)"
vector 323 UAVNetwork_Multi.hostB[6].wlan[0].mac rcvdPkFromLl:vector(packetBytes) ETV
attr interpolationmode none
attr source packetReceivedFromLower
attr title "packets received from lower layer, vector(packetBytes)"
vector 324 UAVNetwork_Multi.hostB[6].wlan[0].mac passedUpPk:vector(packetBytes) ETV
attr interpolationmode none
attr source packetSentToUpper
attr title "packets passed to higher layer, vector(packetBytes)"
vector 325 UAVNetwork_Multi.hostB[7].wlan[0].mac rcvdPkFromLl:vector(packetBytes) ETV
attr interpolationmode none
attr source packetReceivedFromLower
attr title "packets received from lower layer, vector(packetBytes)"
vector 326 UAVNetwork_Multi.hostB[7].wlan[0].mac passedUpPk:vector(packetBytes) ETV
attr interpolationmode none
attr source packetSentToUpper
attr title "packets passed to higher layer, vector(packetBytes)"
vector 327 UAVNetwork_Multi.hostRouters[0].wlan[0].mac sentDownPk:vector(packetBytes) ETV
attr interpolationmode none
attr source packetSentToLower
attr title "packets sent to lower layer, vector(packetBytes)"
vector 328 UAVNetwork_Multi.hostRouters[0].wlan[0].radio transmissionState:vector ETV
attr interpolationmode sample-hold
attr source transmissionStateChanged
attr title "Radio transmission state, vector"
vector 329 UAVNetwork_Multi.hostRouters[2].wlan[0].mac rcvdPkFromLl:vector(packetBytes) ETV
attr interpolationmode none
attr source packetReceivedFromLower
attr title "packets received from lower layer, vector(packetBytes)"
vector 330 UAVNetwork_Multi.hostRouters[2].wlan[0].mac passedUpPk:vector(packetBytes) ETV
attr interpolationmode none
attr source packetSentToUpper
attr title "packets passed to higher layer, vector(packetBytes)"
vector 331 UAVNetwork_Multi.hostB[9].wlan[0].mac rcvdPkFromLl:vector(packetBytes) ETV
attr interpolationmode none
attr source packetReceivedFromLower
attr title "packets received from lower layer, vector(packetBytes)"
vector 332 UAVNetwork_Multi.hostB[9].wlan[0].mac passedUpPk:vector(packetBytes) ETV
attr interpolationmode none
attr source packetSentToUpper
attr title "packets passed to higher layer, vector(packetBytes)"
vector 333 UAVNetwork_Multi.hostB[4].wlan[0].mac rcvdPkFromLl:vector(packetBytes) ETV
attr interpolationmode none
attr source packetReceivedFromLower
attr title "packets received from lower layer, vector(packetBytes)"
vector 334 UAVNetwork_Multi.hostB[4].wlan[0].mac passedUpPk:vector(packetBytes) ETV
attr interpolationmode none
attr source packetSentToUpper
attr title "packets passed to higher layer, vector(packetBytes)"
vector 335 UAVNetwork_Multi.hostB[1].wlan[0].mac rcvdPkFromLl:vector(packetBytes) ETV
attr interpolationmode none
attr source packetReceivedFromLower
attr title "packets received from lower layer, vector(packetBytes)"
vector 336 UAVNetwork_Multi.hostB[1].wlan[0].mac passedUpPk:vector(packetBytes) ETV
attr interpolationmode none
attr source packetSentToUpper
attr title "packets passed to higher layer, vector(packetBytes)"
vector 337 UAVNetwork_Multi.hostRouters[1].wlan[0].mac sentDownPk:vector(packetBytes) ETV
attr interpolationmode none
attr source packetSentToLower
attr title "packets sent to lower layer, vector(packetBytes)"
vector 338 UAVNetwork_Multi.hostRouters[1].wlan[0].radio transmissionState:vector ETV
attr interpolationmode sample-hold
attr source transmissionStateChanged
attr title "Radio transmission state, vector"
vector 339 UAVNetwork_Multi.hostB[5].app[0] pingTxSeq:vector ETV
attr interpolationmode none
attr title "ping tx seq, vector"
vector 340 UAVNetwork_Multi.hostB[5].wlan[0].mac rcvdPkFromHl:vector(packetBytes) ETV
attr interpolationmode none
attr source packetReceivedFromUpper
attr title "packets received from higher layer, vector(packetBytes)"
vector 341 UAVNetwork_Multi.hostB[5].wlan[0].mac sentDownPk:vector(packetBytes) ETV
attr interpolationmode none
attr source packetSentToLower
attr title "packets sent to lower layer, vector(packetBytes)"
vector 342 UAVNetwork_Multi.hostB[5].wlan[0].radio transmissionState:vector ETV
attr interpolationmode sample-hold
attr source transmissionStateChanged
attr title "Radio transmission state, vector"
vector 343 UAVNetwork_Multi.hostA[2].wlan[0].mac rcvdPkFromHl:vector(packetBytes) ETV
attr interpolationmode none
attr source packetReceivedFromUpper
attr title "packets received from higher layer, vector(packetBytes)"
vector 344 UAVNetwork_Multi.hostB[3].wlan[0].mac packetDropNotAddressedToUs:vector(packetBytes) ETV
attr interpolationmode none
attr source packetDropReasonIsNotAddressedToUs(packetDropped)
attr title "packet drop: not addressed to us, vector(packetBytes)"
vector 345 UAVNetwork_Multi.hostB[2].wlan[0].mac packetDropNotAddressedToUs:vector(packetBytes) ETV
attr interpolationmode none
attr source packetDropReasonIsNotAddressedToUs(packetDropped)
attr title "packet drop: not addressed to us, vector(packetBytes)"
vector 346 UAVNetwork_Multi.hostB[8].wlan[0].mac packetDropNotAddressedToUs:vector(packetBytes) ETV
attr interpolationmode none
attr source packetDropReasonIsNotAddressedToUs(packetDropped)
attr title "packet drop: not addressed to us, vector(packetBytes)"
vector 347 UAVNetwork_Multi.hostB[0].wlan[0].mac packetDropNotAddressedToUs:vector(packetBytes) ETV
attr interpolationmode none
attr source packetDropReasonIsNotAddressedToUs(packetDropped)
attr title "packet drop: not addressed to us, vector(packetBytes)"
vector 348 UAVNetwork_Multi.hostB[7].wlan[0].mac packetDropNotAddressedToUs:vector(packetBytes) ETV
attr interpolationmode none
attr source packetDropReasonIsNotAddressedToUs(packetDropped)
attr title "packet drop: not addressed to us, vector(packetBytes)"
vector 349 UAVNetwork_Multi.hostB[6].wlan[0].mac packetDropNotAddressedToUs:vector(packetBytes) ETV
attr interpolationmode none
attr source packetDropReasonIsNotAddressedToUs(packetDropped)
attr title "packet drop: not addressed to us, vector(packetBytes)"
vector 350 UAVNetwork_Multi.hostB[4].wlan[0].mac packetDropNotAddressedToUs:vector(packetBytes) ETV
attr interpolationmode none
attr source packetDropReasonIsNotAddressedToUs(packetDropped)
attr title "packet drop: not addressed to us, vector(packetBytes)"
vector 351 UAVNetwork_Multi.hostB[9].wlan[0].mac packetDropNotAddressedToUs:vector(packetBytes) ETV
attr interpolationmode none
attr source packetDropReasonIsNotAddressedToUs(packetDropped)
attr title "packet drop: not addressed to us, vector(packetBytes)"
vector 352 UAVNetwork_Multi.hostB[1].wlan[0].mac packetDropNotAddressedToUs:vector(packetBytes) ETV
attr interpolationmode none
attr source packetDropReasonIsNotAddressedToUs(packetDropped)
attr title "packet drop: not addressed to us, vector(packetBytes)"
vector 353 UAVNetwork_Multi.hostA[2].wlan[0].mac packetDropNotAddressedToUs:vector(packetBytes) ETV
attr interpolationmode none
attr source packetDropReasonIsNotAddressedToUs(packetDropped)
attr title "packet drop: not addressed to us, vector(packetBytes)"
vector 354 UAVNetwork_Multi.hostC[9].wlan[0].mac packetDropNotAddressedToUs:vector(packetBytes) ETV
attr interpolationmode none
attr source packetDropReasonIsNotAddressedToUs(packetDropped)
attr title "packet drop: not addressed to us, vector(packetBytes)"
vector 355 UAVNetwork_Multi.hostC[0].wlan[0].mac packetDropNotAddressedToUs:vector(packetBytes) ETV
attr interpolationmode none
attr source packetDropReasonIsNotAddressedToUs(packetDropped)
attr title "packet drop: not addressed to us, vector(packetBytes)"
vector 356 UAVNetwork_Multi.hostC[3].wlan[0].mac packetDropNotAddressedToUs:vector(packetBytes) ETV
attr interpolationmode none
attr source packetDropReasonIsNotAddressedToUs(packetDropped)
attr title "packet drop: not addressed to us, vector(packetBytes)"
vector 357 UAVNetwork_Multi.hostC[1].wlan[0].mac packetDropNotAddressedToUs:vector(packetBytes) ETV
attr interpolationmode none
attr source packetDropReasonIsNotAddressedToUs(packetDropped)
attr title "packet drop: not addressed to us, vector(packetBytes)"
vector 358 UAVNetwork_Multi.hostC[5].wlan[0].mac packetDropNotAddressedToUs:vector(packetBytes) ETV
attr interpolationmode none
attr source packetDropReasonIsNotAddressedToUs(packetDropped)
attr title "packet drop: not addressed to us, vector(packetBytes)"
vector 359 UAVNetwork_Multi.hostRouters[0].wlan[0].mac packetDropNotAddressedToUs:vector(packetBytes) ETV
attr interpolationmode none
attr source packetDropReasonIsNotAddressedToUs(packetDropped)
attr title "packet drop: not addressed to us, vector(packetBytes)"
vector 360 UAVNetwork_Multi.hostC[2].wlan[0].mac packetDropNotAddressedToUs:vector(packetBytes) ETV
attr interpolationmode none
attr source packetDropReasonIsNotAddressedToUs(packetDropped)
attr title "packet drop: not addressed to us, vector(packetBytes)"
vector 361 UAVNetwork_Multi.hostA[6].wlan[0].mac packetDropNotAddressedToUs:vector(packetBytes) ETV
attr interpolationmode none
attr source packetDropReasonIsNotAddressedToUs(packetDropped)
attr title "packet drop: not addressed to us, vector(packetBytes)"
vector 362 UAVNetwork_Multi.hostRouters[2].wlan[0].mac packetDropNotAddressedToUs:vector(packetBytes) ETV
attr interpolationmode none
attr source packetDropReasonIsNotAddressedToUs(packetDropped)
attr title "packet drop: not addressed to us, vector(packetBytes)"
vector 363 UAVNetwork_Multi.hostA[1].wlan[0].mac packetDropNotAddressedToUs:vector(packetBytes) ETV
attr interpolationmode none
attr source packetDropReasonIsNotAddressedToUs(packetDropped)
attr title "packet drop: not addressed to us, vector(packetBytes)"
vector 364 UAVNetwork_Multi.hostC[4].wlan[0].mac packetDropNotAddressedToUs:vector(packetBytes) ETV
attr interpolationmode none
attr source packetDropReasonIsNotAddressedToUs(packetDropped)
attr title "packet drop: not addressed to us, vector(packetBytes)"
vector 365 UAVNetwork_Multi.hostA[8].wlan[0].mac packetDropNotAddressedToUs:vector(packetBytes) ETV
attr interpolationmode none
attr source packetDropReasonIsNotAddressedToUs(packetDropped)
attr title "packet drop: not addressed to us, vector(packetBytes)"
vector 366 UAVNetwork_Multi.hostA[5].wlan[0].mac packetDropNotAddressedToUs:vector(packetBytes) ETV
attr interpolationmode none
attr source packetDropReasonIsNotAddressedToUs(packetDropped)
attr title "packet drop: not addressed to us, vector(packetBytes)"
vector 367 UAVNetwork_Multi.hostC[7].wlan[0].mac packetDropNotAddressedToUs:vector(packetBytes) ETV
attr interpolationmode none
attr source packetDropReasonIsNotAddressedToUs(packetDropped)
attr title "packet drop: not addressed to us, vector(packetBytes)"
vector 368 UAVNetwork_Multi.hostA[9].wlan[0].mac packetDropNotAddressedToUs:vector(packetBytes) ETV
attr interpolationmode none
attr source packetDropReasonIsNotAddressedToUs(packetDropped)
attr title "packet drop: not addressed to us, vector(packetBytes)"
vector 369 UAVNetwork_Multi.hostC[8].wlan[0].mac packetDropNotAddressedToUs:vector(packetBytes) ETV
attr interpolationmode none
attr source packetDropReasonIsNotAddressedToUs(packetDropped)
attr title "packet drop: not addressed to us, vector(packetBytes)"
vector 370 UAVNetwork_Multi.hostA[7].wlan[0].mac packetDropNotAddressedToUs:vector(packetBytes) ETV
attr interpolationmode none
attr source packetDropReasonIsNotAddressedToUs(packetDropped)
[...]
374	149827401 10820 950453 1010370 55.809757922367 59.873580591224 343 14 120 23034 2510316
375	149838221 156 952426 1011470 55.937682345277 59.937682345277 5 92 92 460 42320
376	149838377 156 951813 1010758 55.892603815766 59.892603815766 5 92 92 460 42320
377	149838533 156 951573 1010527 55.890988292173 59.890988292173 5 92 92 460 42320
378	149838689 161 952429 1011473 55.937682345277 59.937682345277 5 120 120 600 72000
379	149838850 604 952430 1011509 55.937682345277 59.938834345277 20 0 2 20 30
380	149839454 252 953613 998764 56.145568094915 59.148427143165 8 14 120 536 58384
381	149839706 960 953614 998807 56.145568094915 59.148731143165 32 0 2 32 48
382	149840666 124 954035 998879 56.150324563961 59.150324563961 4 92 92 368 33856
383	149840790 156 950700 1009671 55.817968883552 59.817968883552 5 92 92 460 42320
384	149840946 125 957564 1001838 56.312761629932 59.312761629932 4 92 92 368 33856
385	149841071 65 988638 1003321 58.437802412176 59.437782835681 2 120 120 240 28800
386	149841136 62 988642 1003326 58.4378025691 59.43778289942 2 120 120 240 28800
387	149841198 65 988659 1003343 58.437802748757 59.437783114363 2 120 120 240 28800
388	149841263 33 1003317 1003317 59.437782673873 59.437782673873 1 120 120 120 14400
389	149841296 65 988645 1003335 58.437802588552 59.437783000592 2 120 120 240 28800
390	149841361 252 954038 999176 56.150324563961 59.153383484233 8 14 120 536 58384
391	149841613 960 954039 999220 56.150324563961 59.153687484233 32 0 2 32 48
392	149842573 125 958436 1002707 56.432995334966 59.432995334966 4 92 92 368 33856
393	149842698 120 954375 999113 56.15314512467 59.15314512467 4 92 92 368 33856
394	149842818 121 963407 1007536 56.67531900527 59.67531900527 4 92 92 368 33856
395	149842939 348 951993 1011210 55.894581700366 59.89762078252 11 14 120 790 87380
396	149843287 1324 951994 1011257 55.894581700366 59.89792478252 44 0 2 44 66
397	149844611 252 957567 1002133 56.312761629932 59.315640658306 8 14 120 536 58384
398	149844863 960 957568 1002180 56.312761629932 59.315944658306 32 0 2 32 48
399	149845823 253 958439 1003026 56.432995334966 59.436134104127 8 14 120 536 58384
400	149846076 964 958440 1003066 56.432995334966 59.436438104127 32 0 2 32 48
401	149847040 405 952512 1011554 55.938844802163 59.938844558306 13 14 120 606 59364
402	149847445 1552 952513 1011592 55.938844802163 59.939148558306 52 0 2 52 78
403	149848997 316 951576 1010819 55.890988292173 59.89368703458 10 14 120 670 72980
404	149849313 1204 951577 1010857 55.890988292173 59.89399103458 40 0 2 40 60
405	149850517 252 954452 999573 56.153497476611 59.157216529992 8 14 120 536 58384
406	149850769 960 954453 999614 56.153497476611 59.157520529992 32 0 2 32 48
407	149851729 124 955127 999930 56.173387485061 59.172907539254 4 51 54 210 11030
408	149851853 172 955127 999930 56.173387485061 59.172907539254 4 0.002708428576 0.003248557884 0.011754086026 3.4725662980932e-005
409	149852025 317 950703 1009963 55.817968883552 59.820987783328 10 14 120 670 72980
410	149852342 1208 950704 1010006 55.817968883552 59.821291783328 40 0 2 40 60
411	149853550 125 955724 1000509 56.213108176133 59.213108176133 4 51 54 210 11030
412	149853675 125 955727 1000512 56.213108176133 59.213108176133 4 92 92 368 33856
413	149853800 254 955730 1000810 56.213108176133 59.216027103866 8 14 120 536 58384
414	149854054 968 955731 1000853 56.213108176133 59.216331103866 32 0 2 32 48
415	149855022 125 960349 1004512 56.508236306487 59.508236306487 4 92 92 368 33856
416	149855147 125 963835 1007947 56.704133691266 59.704133691266 4 92 92 368 33856
417	149855272 124 952662 997067 56.012188484892 59.012188484892 4 92 92 368 33856
418	149855396 125 958005 1002260 56.375175100286 59.375175100286 4 92 92 368 33856
419	149855521 3543 950145 1011615 55.78347294857 59.939148986307 112 14 120 7610 831580
420	149859064 9164 950469 1011610 55.809758102157 59.939148889341 290 14 120 19642 2144828
421	149868228 125 955300 1000094 56.178354379488 59.178354379488 4 92 92 368 33856
422	149868353 254 960352 1004810 56.508236306487 59.510955493185 8 14 120 536 58384
423	149868607 968 960353 1004856 56.508236306487 59.511259493185 32 0 2 32 48
424	149869575 125 958892 1003132 56.436506179394 59.436506179394 4 92 92 368 33856
425	149869700 250 952665 997362 56.012188484892 59.015187748475 8 14 120 536 58384
426	149869950 952 952666 997407 56.012188484892 59.015491748475 32 0 2 32 48
427	149870902 125 962091 1006230 56.586684764596 59.586684764596 4 92 92 368 33856
428	149871027 125 964275 1008386 56.776789899683 59.776789899683 4 92 92 368 33856
429	149871152 285 959100 1003509 56.438048429189 59.439204770769 9 14 120 656 72784
430	149871437 1084 959101 1003548 56.438048429189 59.439508770769 36 0 2 36 54
431	149872521 125 959421 1003654 56.439931514207 59.439931514207 4 92 92 368 33856
432	149872646 252 964278 1008691 56.776789899683 59.77954852691 8 14 120 536 58384
433	149872898 960 964279 1008731 56.776789899683 59.77985252691 32 0 2 32 48
434	149873858 254 963838 1008247 56.704133691266 59.707132111942 8 14 120 536 58384
435	149874112 968 963839 1008285 56.704133691266 59.707436111942 32 0 2 32 48
436	149875080 222 959197 1003234 56.439200853229 59.437658729192 7 14 120 628 72392
437	149875302 64 959572 973793 56.441084008422 57.437821912358 2 120 120 240 28800
438	149875366 63 959514 959645 56.441056429342 56.441371138858 2 14 120 134 14596
439	149875429 159 959506 1003232 56.441056355499 59.437658727474 5 14 120 494 57796
440	149875588 160 959201 1003236 56.439201004086 59.437658807504 5 14 120 494 57796
441	149875748 62 959516 959651 56.441056452621 56.44137122162 2 14 120 134 14596
442	149875810 285 959424 1004374 56.439931514207 59.446556283148 9 14 120 656 72784
443	149876095 1084 959425 1004415 56.439931514207 59.446860283148 36 0 2 36 54
444	149877179 125 955978 1000764 56.215976969252 59.216017103866 4 51 54 210 11030
445	149877304 173 955978 1000764 56.215976969252 59.216017103866 4 0.002868793119 0.003268778436 0.012155438489 3.7042249934611e-005
446	149877477 254 958008 1002553 56.375175100286 59.377854224743 8 14 120 536 58384
447	149877731 968 958009 1002597 56.375175100286 59.378158224743 32 0 2 32 48
448	149878699 254 962094 1006529 56.586684764596 59.589604222136 8 14 120 536 58384
449	149878953 968 962095 1006576 56.586684764596 59.589908222136 32 0 2 32 48
450	149879921 253 955303 1000387 56.178354379488 59.18117319761 8 14 120 536 58384
451	149880174 964 955304 1000430 56.178354379488 59.18147719761 32 0 2 32 48
452	149881138 156 950697 1009668 55.817968883552 59.817968883552 5 50 54 260 13530
453	149881294 65 988647 1003329 58.437802595913 59.437782912476 2 120 120 240 28800
454	149881359 65 988655 1003337 58.437802688078 59.437783086262 2 120 120 240 28800
455	149881424 65 988653 1003339 58.437802660628 59.437783087155 2 120 120 240 28800
456	149881489 63 988661 1003346 58.43780279243 59.43778315358 2 120 120 240 28800
457	149881552 127 959342 996281 56.439540167808 58.89403825787 4 120 120 480 57600
458	149881679 128 988634 1003319 58.437802333993 59.437782722002 4 120 120 480 57600
459	149881807 65 988649 1003332 58.437802612207 59.437782944792 2 120 120 240 28800
461	149881872 156 951810 1010755 55.892603815766 59.892603815766 5 50 54 260 13530
462	149882028 155 952245 1011174 55.897690764652 59.89761078252 5 50 54 260 13530
463	149882183 214 952245 1011174 55.897690764652 59.89761078252 5 0.004666946563 0.00602684539 0.025814657092 0.0001343202418868
464	149882397 124 952659 997064 56.012188484892 59.012188484892 4 50 53 206 10614
465	149882521 122 952922 997321 56.015077891074 59.015177748475 4 50 53 206 10614
466	149882643 170 952922 997321 56.015077891074 59.015177748475 4 0.002889406182 0.002989356022 0.011817456395 3.4919755190905e-005
467	149882813 124 954032 998876 56.150324563961 59.150324563961 4 50 53 206 10614
468	149882937 120 954372 999110 56.15314512467 59.15314512467 4 50 53 206 10614
470	149883057 124 954691 999521 56.156466011407 59.157206529992 4 50 53 206 10614
471	149883181 172 954691 999521 56.156466011407 59.157206529992 4 0.003160964526 0.004061405322 0.014424077977 5.2575773320788e-005
472	149883353 125 955297 1000091 56.178354379488 59.178354379488 4 50 53 206 10614
473	149883478 128 959347 996279 56.439540194547 58.894038239109 4 120 120 480 57600
474	149883606 349 959203 1003379 56.439201180207 59.437973492909 11 14 120 896 101584
475	149883955 126 959350 996272 56.439540252756 58.8940382038 4 120 120 480 57600
476	149884081 63 959522 959668 56.441056555853 56.441371427362 2 14 120 134 14596
477	149884144 63 959518 959655 56.441056508414 56.441371272528 2 14 120 134 14596
478	149884207 161 959500 1003230 56.441056207226 59.437658607501 5 120 120 600 72000
479	149884368 62 959520 959672 56.44105654099 56.441371442838 2 14 120 134 14596
480	149884430 64 959199 973795 56.439200925116 57.437821963785 2 120 120 240 28800
482	149884494 125 957123 1001399 56.270964390365 59.270964390365 4 50 53 206 10614
483	149884619 125 957126 1001402 56.270964390365 59.270964390365 4 92 92 368 33856
484	149884744 254 957129 1001708 56.270964390365 59.273863279945 8 14 120 536 58384
485	149884998 968 957130 1001750 56.270964390365 59.274167279945 32 0 2 32 48
486	149885966 156 950275 1009242 55.808290111134 59.808290111134 5 92 92 460 42320
487	149886122 317 950278 1009550 55.808290111134 59.811028507669 10 14 120 670 72980
488	149886439 1208 950279 1009589 55.808290111134 59.811332507669 40 0 2 40 60
489	149887647 125 962963 1007089 56.646440506913 59.646440506913 4 92 92 368 33856
490	149887772 125 961215 1005362 56.541755211772 59.541755211772 4 92 92 368 33856
491	149887897 125 964513 1008624 56.778533849167 59.778533849167 4 92 92 368 33856
492	149888022 96 959359 989356 56.439540427397 58.442721140225 3 120 120 360 43200
493	149888118 128 959355 996266 56.439540355481 58.894038132563 4 120 120 480 57600
494	149888246 254 962966 1007407 56.646440506913 59.649439717662 8 14 120 536 58384
495	149888500 968 962967 1007453 56.646440506913 59.649743717662 32 0 2 32 48
496	149889468 254 961218 1005673 56.541755211772 59.544893672179 8 14 120 536 58384
497	149889722 968 961219 1005713 56.541755211772 59.545197672179 32 0 2 32 48
498	149890690 127 959345 996284 56.439540182954 58.894038266819 4 120 120 480 57600
499	149890817 125 961658 1005800 56.573836859548 59.573836859548 4 92 92 368 33856
500	149890942 283 950146 1009110 55.78348169685 59.783662707175 9 14 120 550 58580
501	149891225 1080 950147 1009157 55.78348169685 59.783966707175 36 0 2 36 54
502	149892305 125 962533 1006661 56.634649532149 59.634649532149 4 92 92 368 33856
503	149892430 156 951141 1010091 55.870691089192 59.870691089192 5 92 92 460 42320
504	149892586 121 960786 1004936 56.53279723227 59.53279723227 4 92 92 368 33856
505	149892707 286 959352 1003312 56.439540354572 59.437782086321 9 14 120 868 101192
506	149892993 317 951144 1010401 55.870691089192 59.873589377075 10 14 120 670 72980
507	149893310 1208 951145 1010439 55.870691089192 59.873893377075 40 0 2 40 60
508	149894518 250 960789 1005245 56.53279723227 59.535636262147 8 14 120 536 58384
509	149894768 952 960790 1005288 56.53279723227 59.535940262147 32 0 2 32 48
510	149895720 224 959205 1003315 56.439201181359 59.437782193882 7 14 120 734 86596
511	149895944 253 961661 1006109 56.573836859548 59.577035911468 8 14 120 536 58384
512	149896197 964 961662 1006153 56.573836859548 59.577339911468 32 0 2 32 48
513	149897161 254 962536 1006970 56.634649532149 59.637688148658 8 14 120 536 58384
514	149897415 968 962537 1007011 56.634649532149 59.637992148658 32 0 2 32 48
515	149898383 128 959357 996269 56.439540356477 58.894038188566 4 120 120 480 57600
516	149898511 128 959340 996261 56.439540143347 58.894038017546 4 120 120 480 57600
517	149898639 125 957376 1001653 56.273732909097 59.273853279945 4 50 53 206 10614
518	149898764 172 957376 1001653 56.273732909097 59.273853279945 4 0.002768518732 0.003268708662 0.012075054348 3.6610641877275e-005
519	149898936 125 957561 1001835 56.312761629932 59.312761629932 4 50 53 206 10614
520	149899061 123 957811 1002094 56.315830232513 59.315630658306 4 50 53 206 10614
521	149899184 171 957811 1002094 56.315830232513 59.315630658306 4 0.002869028374 0.003208628098 0.012195083541 3.7238270640841e-005
522	149899355 125 958433 1002704 56.432995334966 59.432995334966 4 50 53 206 10614
523	149899480 124 958697 1002975 56.436044365074 59.436124104127 4 50 53 206 10614
524	149899604 172 958697 1002975 56.436044365074 59.436124104127 4 0.002688780853 0.003148911354 0.012015491476 3.6230966253125e-005
525	149899776 125 959418 1003651 56.439931514207 59.439931514207 4 50 53 206 10614
526	149899901 125 960154 1004324 56.446433228424 59.446546283148 4 50 53 206 10614
527	149900026 173 960154 1004324 56.446433228424 59.446546283148 4 0.004825641701 0.006875974731 0.02481809959 0.00015659330223014
528	149900199 125 962088 1006227 56.586684764596 59.586684764596 4 50 53 206 10614
529	149900324 125 962349 1006489 56.589914004172 59.589594222136 4 50 53 206 10614
530	149900449 171 962349 1006489 56.589914004172 59.589594222136 4 0.00290945754 0.003269416639 0.012477656675 3.900411031336e-005
531	149900620 125 962530 1006658 56.634649532149 59.634649532149 4 50 53 206 10614
532	149900745 125 962960 1007086 56.646440506913 59.646440506913 4 50 53 206 10614
533	149900870 125 963222 1007359 56.649489200885 59.649429717662 4 50 53 206 10614
534	149900995 173 963222 1007359 56.649489200885 59.649429717662 4 0.002709242458 0.003048693972 0.011476128763 3.3017251018887e-005
535	149901168 125 962795 1006912 56.637878436574 59.637678148658 4 50 53 206 10614
536	149901293 173 962795 1006912 56.637878436574 59.637678148658 4 0.003028616509 0.003228904425 0.01255483444 3.9427224197597e-005
537	149901466 125 963832 1007944 56.704133691266 59.704133691266 4 50 53 206 10614
538	149901591 125 964076 1008188 56.707302319589 59.707122111942 4 50 53 206 10614
539	149901716 173 964076 1008188 56.707302319589 59.707122111942 4 0.002988420676 0.003248645788 0.012414324096 3.8576413360926e-005
540	149901889 125 964510 1008621 56.778533849167 59.778533849167 4 50 53 206 10614
541	149902014 124 964950 1009064 56.783572146276 59.783652707175 4 50 53 206 10614
542	149902138 171 964950 1009064 56.783572146276 59.783652707175 4 0.004759105413 0.005118858008 0.01995507405 9.9625871086004e-005
543	149902309 156 950272 1009239 55.808290111134 59.808290111134 5 49 53 255 13015
544	149902465 156 950535 1009488 55.811019339083 59.811018507669 5 49 53 255 13015
545	149902621 215 950535 1009488 55.811019339083 59.811018507669 5 0.002728396535 0.003268655513 0.01494274486 4.4911975768869e-005
546	149902836 156 950962 1009916 55.821258029852 59.820977783328 5 50 54 260 13530
547	149902992 214 950962 1009916 55.821258029852 59.820977783328 5 0.003008899776 0.0032891463 0.01580492654 5.0009263789131e-005
549	149903206 156 951138 1010088 55.870691089192 59.870691089192 5 49 53 255 13015
550	149903362 156 951389 1010337 55.873379535745 59.873579377075 5 49 53 255 13015
551	149903518 216 951389 1010337 55.873379535745 59.873579377075 5 0.002688337297 0.003148184255 0.014201375919 4.0481786038933e-005
552	149903734 156 952423 1011467 55.937682345277 59.937682345277 5 49 53 255 13015
555	149903890 124 953607 998455 56.145568094915 59.145568094915 4 49 52 202 10206
556	149904014 124 953855 998711 56.148576413258 59.148417143165 4 49 52 202 10206
557	149904138 171 953855 998711 56.148576413258 59.148417143165 4 0.002848504634 0.003248802571 0.011954673798 3.5835751978914e-005
558	149904309 124 954282 999132 56.153033231557 59.153373484233 4 50 53 206 10614
559	149904433 172 954282 999132 56.153033231557 59.153373484233 4 0.002708667596 0.003048920272 0.01141487392 3.2655219075651e-005
561	149904605 124 955542 1000337 56.181582977949 59.18116319761 4 50 53 206 10614
562	149904729 172 955542 1000337 56.181582977949 59.18116319761 4 0.002788709307 0.003228598461 0.011774992528 3.4786021312505e-005
565	149904901 125 958002 1002257 56.375175100286 59.375175100286 4 49 52 202 10206
566	149905026 125 958259 1002509 56.378444119653 59.377844224743 4 49 52 202 10206
567	149905151 173 958259 1002509 56.378444119653 59.377844224743 4 0.002669124457 0.003269019367 0.011396551677 3.271103056384e-005
568	149905324 125 958889 1003129 56.436506179394 59.436506179394 4 49 52 202 10206
569	149905449 124 959933 1003455 56.44435637147 59.439194770769 4 49 52 202 10206
570	149905573 172 959933 1003455 56.44435637147 59.439194770769 4 0.002688591375 0.012018126189 0.028771065192 0.000251905125531
571	149905745 125 960346 1004509 56.508236306487 59.508236306487 4 49 52 202 10206
572	149905870 125 960614 1004768 56.511185377821 59.510945493185 4 49 52 202 10206
573	149905995 173 960614 1004768 56.511185377821 59.510945493185 4 0.002709186698 0.003129358487 0.011636975884 3.3948447628713e-005
574	149906168 121 960783 1004933 56.53279723227 59.53279723227 4 49 52 202 10206
575	149906289 125 961043 1005191 56.535745914717 59.535626262147 4 49 52 202 10206
576	149906414 173 961043 1005191 56.535745914717 59.535626262147 4 0.002729059688 0.002948682447 0.011255669608 3.1702342992166e-005
577	149906587 125 961212 1005359 56.541755211772 59.541755211772 4 49 52 202 10206
578	149906712 125 961477 1005613 56.544744006476 59.544883672179 4 49 52 202 10206
579	149906837 173 961477 1005613 56.544744006476 59.544883672179 4 0.002988794704 0.003228426769 0.012454137425 3.8805393578862e-005
580	149907010 125 961655 1005797 56.573836859548 59.573836859548 4 49 52 202 10206
581	149907135 124 961912 1006057 56.577045439405 59.577025911468 4 49 52 202 10206
582	149907259 170 961912 1006057 56.577045439405 59.577025911468 4 0.00274902197 0.003208579857 0.012195494629 3.7317589362499e-005
584	149907429 121 963404 1007533 56.67531900527 59.67531900527 4 49 52 202 10206
585	149907550 124 963661 1007777 56.678507958837 59.678527861207 4 49 52 202 10206
586	149907674 171 963661 1007777 56.678507958837 59.678527861207 4 0.002748907532 0.003208855937 0.011895713106 3.5579653289264e-005
587	149907845 125 964272 1008383 56.776789899683 59.776789899683 4 49 52 202 10206
588	149907970 123 964524 1008636 56.779678581117 59.77953852691 4 49 52 202 10206
589	149908093 171 964524 1008636 56.779678581117 59.77953852691 4 0.002728793132 0.003048754767 0.01141485656 3.2640649646698e-005
591	149908264 156 951570 1010524 55.890988292173 59.890988292173 5 48 52 250 12510
592	149908420 155 951828 1010765 55.893657216595 59.89367703458 5 48 52 250 12510
593	149908575 215 951828 1010765 55.893657216595 59.89367703458 5 0.002668924422 0.003128811318 0.014644080153 4.3101794960286e-005
595	149908790 124 953104 997495 56.101091995602 59.101091995602 4 46 49 190 9030
596	149908914 123 953424 998289 56.104242053639 59.10743857037 4 46 49 190 9030
597	149909037 171 953424 998289 56.104242053639 59.10743857037 4 0.003150058037 0.006485481152 0.019193196281 0.00010257439238674
598	149909208 125 958670 1002951 56.435646484839 59.435646484839 4 46 49 190 9030
599	149909333 125 959495 1004132 56.441056182946 59.444488231644 4 46 49 190 9030
600	149909458 171 959495 1004132 56.441056182946 59.444488231644 4 0.005409698107 0.0106418431 0.03413645445 0.00030612627053819
620	149909629 125 956149 1000927 56.240859382786 59.240859382786 4 43 46 178 7926
621	149909754 125 956970 1001261 56.247744401973 59.243830744437 4 43 46 178 7926
622	149909879 173 956970 1001261 56.247744401973 59.243830744437 4 0.002830895488 0.006885019187 0.019053460355 0.00010477474762147
666	149910052 156 952485 1011513 55.938834802163 59.938834558306 5 84 84 420 35280
679	149910208 30 950535 950535 55.811019339083 55.811019339083 1 2 2 2 4

