version 2
run General-0-20201218-00:26:47-14620
attr configname General
attr datetime 20201218-00:26:47
attr experiment General
attr inifile multi_test_ideal.ini
attr iterationvars ""
attr iterationvarsf ""
attr measurement ""
attr network myuav.UAVNetwork_Multi
attr processid 14620
attr repetition 0
attr replication #0
attr resultdir results
attr runnumber 0
attr seedset 0
param *.configurator.addStaticRoutes false
param **.arp.typename "\"GlobalArp\""
param **.hostA[*].forwarding false
param **.hostB[*].forwarding false
param **.hostC[*].forwarding false
param **.hostA[*].multicastForwarding false
param **.hostB[*].multicastForwarding false
param **.hostC[*].multicastForwarding false
param **.hostRouters[*].forwarding true
param **.hostRouters[*].multicastForwarding true
param *.numHostsA 10
param *.numHostsB 10
param *.numHostsC 10
param *.configurator.config "xmldoc(\"multi_test.xml\")"
param *.configurator.dumpAddresses true
param *.configurator.dumpTopology true
param *.configurator.dumpLinks true
param *.configurator.dumpRoutes true
param *.configurator.dumpConfig "\"multi_test_dump.xml\""
param *.visualizer.osgVisualizer.typename "\"IntegratedOsgVisualizer\""
param *.visualizer.osgVisualizer.sceneVisualizer.clearColor "\"skyblue\""
param *.visualizer.osgVisualizer.sceneVisualizer.sceneImage "\"showcases/desert\""
param *.visualizer.osgVisualizer.sceneVisualizer.sceneImageSize 2000m
param *.visualizer.osgVisualizer.sceneVisualizer.axisLength 500m
param *.visualizer.osgVisualizer.sceneVisualizer.sceneMinX 0m
param *.visualizer.osgVisualizer.sceneVisualizer.sceneMinY 0m
param *.visualizer.osgVisualizer.sceneVisualizer.sceneMinZ 0m
param *.visualizer.osgVisualizer.sceneVisualizer.sceneMaxX 2000m
param *.visualizer.osgVisualizer.sceneVisualizer.sceneMaxY 2000m
param *.visualizer.osgVisualizer.sceneVisualizer.sceneMaxZ 1000m
param *.visualizer.*.dataLinkVisualizer.displayLinks true
param *.visualizer.*.dataLinkVisualizer.packetFilter "\"ping*\""
param *.visualizer.*.dataLinkVisualizer.nodeFilter "\"*\""
param *.visualizer.*.networkRouteVisualizer.displayRoutes true
param *.visualizer.*.networkRouteVisualizer.lineShift 0
param *.visualizer.*.networkRouteVisualizer.lineWidth 10
param *.visualizer.*.networkRouteVisualizer.packetFilter "\"ping*\""
param *.visualizer.*.mobilityVisualizer.displayMovementTrails true
param *.visualizer.*.mobilityVisualizer.animationSpeed 1
param **.host*.**.bitrate 1Mbps
param **.hostRouters[*].wlan[*].radio.transmitter.power 10mW
param **.host*.wlan[*].radio.transmitter.power 2mW
param *.host*.numApps 1
param **.hostA[*].app[*].continuous true
param **.hostB[*].app[*].continuous true
param **.hostC[*].app[*].continuous true
param **.hostRouters[*].app[*].count 1
param **.hostRouters[*].app[*].continuous true
param **.host*.app[*].typename "\"PingApp\""
param **.hostRouters[0].app[*].destAddr "\"hostRouters[1] hostRouters[2]\""
param **.hostRouters[1].app[*].destAddr "\"hostRouters[0] hostRouters[2]\""
param **.hostRouters[2].app[*].destAddr "\"hostRouters[0] hostRouters[1]\""
param **.hostRouters[*].app[*].startTime uniform(10s,15s)
param **.hostRouters[*].app[*].printPing true
param **.hostA[*].app[*].destAddr "\"hostRouters[0]\""
param **.hostA[*].app[*].startTime uniform(5s,8s)
param **.hostA[*].app[*].printPing true
param **.hostB[*].app[*].destAddr "\"hostRouters[1]\""
param **.hostB[*].app[*].startTime uniform(5s,8s)
param **.hostB[*].app[*].printPing true
param **.hostC[*].app[*].destAddr "\"hostRouters[2]\""
param **.hostC[*].app[*].startTime uniform(5s,8s)
param **.hostC[*].app[*].printPing true
param **.host*.mobility.initFromDisplayString false
param **.host*.mobility.typename "\"MassMobility\""
param **.host*.osgModel "\"3d/drone.ive.100.scale.0,0,90.rot\""
param **.host*.mobility.initialMovementHeading "uniform(0deg, 360deg)"
param **.host*.mobility.initialMovementElevation "uniform(-90deg, 90deg)"
param **.host*.mobility.rotationAxisAngle uniform(-10deg,10deg)
param **.host*.mobility.faceForward false
param **.hostRouters[*].mobility.speed truncnormal(50mps,8mps)
param **.hostRouters[*].mobility.changeInterval "truncnormal(2s, 1s)"
param **.hostRouters[*].mobility.angleDelta "normal(-20deg, 20deg)"
param **.host*.mobility.speed "truncnormal(20mps, 4mps)"
param **.host*.mobility.changeInterval "truncnormal(3s, 1s)"
param **.host*.mobility.angleDelta "normal(-10deg, 10deg)"
param **.host*.mobility.initialZ 200m
param **.host*.mobility.constraintAreaMinZ 100m
param **.host*.mobility.constraintAreaMaxZ 300m
param **.hostRouters[0].mobility.initialX 700m
param **.hostRouters[0].mobility.initialY 700m
param **.hostRouters[0].mobility.constraintAreaMinX 575m
param **.hostRouters[0].mobility.constraintAreaMaxX 825m
param **.hostRouters[0].mobility.constraintAreaMinY 575m
param **.hostRouters[0].mobility.constraintAreaMaxY 825m
param **.hostA[*].mobility.constraintAreaMinX 600m
param **.hostA[*].mobility.constraintAreaMaxX 800m
param **.hostA[*].mobility.constraintAreaMinY 600m
param **.hostA[*].mobility.constraintAreaMaxY 800m
param **.hostRouters[1].mobility.initialX 950m
param **.hostRouters[1].mobility.initialY 450m
param **.hostRouters[1].mobility.constraintAreaMinX 825m
param **.hostRouters[1].mobility.constraintAreaMaxX 1075m
param **.hostRouters[1].mobility.constraintAreaMinY 325m
param **.hostRouters[1].mobility.constraintAreaMaxY 575m
param **.hostB[*].mobility.constraintAreaMinX 850m
param **.hostB[*].mobility.constraintAreaMaxX 1050m
param **.hostB[*].mobility.constraintAreaMinY 350m
param **.hostB[*].mobility.constraintAreaMaxY 550m
param **.hostRouters[2].mobility.initialX 950m
param **.hostRouters[2].mobility.initialY 950m
param **.hostRouters[2].mobility.constraintAreaMinX 825m
param **.hostRouters[2].mobility.constraintAreaMaxX 1075m
param **.hostRouters[2].mobility.constraintAreaMinY 825m
param **.hostRouters[2].mobility.constraintAreaMaxY 1075m
param **.hostC[*].mobility.constraintAreaMinX 850m
param **.hostC[*].mobility.constraintAreaMaxX 1050m
param **.hostC[*].mobility.constraintAreaMinY 850m
param **.hostC[*].mobility.constraintAreaMaxY 1050m

scalar UAVNetwork_Multi.radioMedium.propagation "Arrival computation count" 301856
scalar UAVNetwork_Multi.radioMedium "transmission count" 9433
scalar UAVNetwork_Multi.radioMedium "signal send count" 301856
scalar UAVNetwork_Multi.radioMedium "reception computation count" 301856
scalar UAVNetwork_Multi.radioMedium "interference computation count" 876269
scalar UAVNetwork_Multi.radioMedium "reception decision computation count" 166604
scalar UAVNetwork_Multi.radioMedium "listening decision computation count" 409633
scalar UAVNetwork_Multi.radioMedium "reception cache hit" 83.326465568192
attr unit %
scalar UAVNetwork_Multi.radioMedium "interference cache hit" 66.666666666667
attr unit %
scalar UAVNetwork_Multi.radioMedium "noise cache hit" 0
attr unit %
scalar UAVNetwork_Multi.radioMedium "snir cache hit" 50
attr unit %
scalar UAVNetwork_Multi.radioMedium "reception decision cache hit" 50
attr unit %
scalar UAVNetwork_Multi.radioMedium "reception result cache hit" 0
attr unit %
scalar UAVNetwork_Multi.hostA[0].lo[0].lo rcvdPkFromHl:count 0
attr interpolationmode none
attr source packetReceivedFromUpper
attr title "packets received from higher layer, count"
scalar UAVNetwork_Multi.hostA[0].lo[0].lo rcvdPkFromHl:sum(packetBytes) 0
attr interpolationmode none
attr source packetReceivedFromUpper
attr title "packets received from higher layer, sum(packetBytes)"
scalar UAVNetwork_Multi.hostA[0].lo[0].lo passedUpPk:count 0
attr interpolationmode none
attr source packetSentToUpper
attr title "packets passed to higher layer, count"
scalar UAVNetwork_Multi.hostA[0].lo[0].lo passedUpPk:sum(packetBytes) 0
attr interpolationmode none
attr source packetSentToUpper
attr title "packets passed to higher layer, sum(packetBytes)"
scalar UAVNetwork_Multi.hostA[0].wlan[0].mac rcvdPkFromLl:count 5317
attr interpolationmode none
attr source packetReceivedFromLower
attr title "packets received from lower layer, count"
scalar UAVNetwork_Multi.hostA[0].wlan[0].mac rcvdPkFromLl:sum(packetBytes) 375100
attr interpolationmode none
attr source packetReceivedFromLower
attr title "packets received from lower layer, sum(packetBytes)"
scalar UAVNetwork_Multi.hostA[0].wlan[0].mac sentDownPk:count 172
attr interpolationmode none
attr source packetSentToLower
attr title "packets sent to lower layer, count"
scalar UAVNetwork_Multi.hostA[0].wlan[0].mac sentDownPk:sum(packetBytes) 12728
attr interpolationmode none
attr source packetSentToLower
attr title "packets sent to lower layer, sum(packetBytes)"
scalar UAVNetwork_Multi.hostA[0].wlan[0].mac rcvdPkFromHl:count 91
attr interpolationmode none
attr source packetReceivedFromUpper
attr title "packets received from higher layer, count"
scalar UAVNetwork_Multi.hostA[0].wlan[0].mac rcvdPkFromHl:sum(packetBytes) 7156
attr interpolationmode none
attr source packetReceivedFromUpper
attr title "packets received from higher layer, sum(packetBytes)"
scalar UAVNetwork_Multi.hostA[0].wlan[0].mac passedUpPk:count 340
attr interpolationmode none
attr source packetSentToUpper
attr title "packets passed to higher layer, count"
scalar UAVNetwork_Multi.hostA[0].wlan[0].mac passedUpPk:sum(packetBytes) 21904
attr interpolationmode none
attr source packetSentToUpper
attr title "packets passed to higher layer, sum(packetBytes)"
scalar UAVNetwork_Multi.hostA[0].wlan[0].mac packetDropIncorrectlyReceived:count 164
attr interpolationmode none
attr source packetDropReasonIsIncorrectlyReceived(packetDropped)
attr title "packet drop: incorrectly received, count"
scalar UAVNetwork_Multi.hostA[0].wlan[0].mac packetDropIncorrectlyReceived:sum(packetBytes) 14754
attr interpolationmode none
attr source packetDropReasonIsIncorrectlyReceived(packetDropped)
attr title "packet drop: incorrectly received, sum(packetBytes)"
scalar UAVNetwork_Multi.hostA[0].wlan[0].mac packetDropNotAddressedToUs:count 4758
attr interpolationmode none
attr source packetDropReasonIsNotAddressedToUs(packetDropped)
attr title "packet drop: not addressed to us, count"
scalar UAVNetwork_Multi.hostA[0].wlan[0].mac packetDropNotAddressedToUs:sum(packetBytes) 328152
attr interpolationmode none
attr source packetDropReasonIsNotAddressedToUs(packetDropped)
attr title "packet drop: not addressed to us, sum(packetBytes)"
scalar UAVNetwork_Multi.hostA[0].wlan[0].mac packetDropQueueOverflow:count 0
attr interpolationmode none
attr source packetDropReasonIsQueueOverflow(packetDropped)
attr title "packet drop: queue overflow, count"
scalar UAVNetwork_Multi.hostA[0].wlan[0].mac packetDropQueueOverflow:sum(packetBytes) 0
attr interpolationmode none
attr source packetDropReasonIsQueueOverflow(packetDropped)
attr title "packet drop: queue overflow, sum(packetBytes)"
scalar UAVNetwork_Multi.hostA[0].wlan[0].mac packetDropRetryLimitReached:count 4
attr interpolationmode none
attr source packetDropReasonIsRetryLimitReached(packetDropped)
attr title "packet drop: retry limit reached, count"
scalar UAVNetwork_Multi.hostA[0].wlan[0].mac packetDropRetryLimitReached:sum(packetBytes) 336
attr interpolationmode none
attr source packetDropReasonIsRetryLimitReached(packetDropped)
attr title "packet drop: retry limit reached, sum(packetBytes)"
scalar UAVNetwork_Multi.hostA[0].wlan[0].mac linkBroken:count 4
attr interpolationmode none
attr source linkBroken
attr title "link break, count"
statistic UAVNetwork_Multi.hostA[0].wlan[0].radio minSnir:histogram
field count 5317
field mean 5608.7651247825
field stddev 15803.26863172
field min 0.061800357572573
field max 192449.46048141
field sum 29821804.168468
field sqrsum 1494898875034.8
attr source minimumSnir(packetSentToUpper)
attr title "Min SNIR, histogram"
bin	-inf	0
bin	0	4095
bin	4000	343
bin	8000	274
bin	12000	244
bin	16000	98
bin	20000	22
bin	24000	23
bin	28000	7
bin	32000	19
bin	36000	16
bin	40000	13
bin	44000	10
bin	48000	23
bin	52000	31
bin	56000	18
bin	60000	4
bin	64000	4
bin	68000	0
bin	72000	0
bin	76000	2
bin	80000	4
bin	84000	0
bin	88000	2
bin	92000	6
bin	96000	8
bin	100000	0
bin	104000	6
bin	108000	4
bin	112000	4
bin	116000	6
bin	120000	4
bin	124000	10
bin	128000	5
bin	132000	4
bin	136000	0
bin	140000	4
bin	144000	0
bin	148000	2
bin	152000	0
bin	156000	0
bin	160000	0
bin	164000	0
bin	168000	0
bin	172000	0
bin	176000	0
bin	180000	0
bin	184000	0
bin	188000	1
bin	192000	1
bin	196000	0
statistic UAVNetwork_Multi.hostA[0].wlan[0].radio packetErrorRate:histogram
field count 5317
field mean 0.030340282743964
field stddev 0.16075248909174
field min 0
field max 1
field sum 161.31928334965
field sqrsum 142.26715704357
attr source packetErrorRate(packetSentToUpper)
attr title "Packet error rate, histogram"
bin	-inf	0
bin	0	5073
bin	0.02	14
bin	0.04	7
bin	0.06	5
bin	0.08	5
bin	0.1	4
bin	0.12	6
bin	0.14	3
bin	0.16	6
bin	0.18	3
bin	0.2	6
bin	0.22	4
bin	0.24	2
bin	0.26	2
bin	0.28	3
bin	0.3	5
bin	0.32	0
bin	0.34	1
bin	0.36	2
bin	0.38	2
bin	0.4	1
bin	0.42	2
bin	0.44	1
bin	0.46	2
bin	0.48	2
bin	0.5	3
bin	0.52	4
bin	0.54	3
bin	0.56	2
bin	0.58	1
bin	0.6	1
bin	0.62	0
bin	0.64	1
bin	0.66	0
bin	0.68	0
bin	0.7	1
bin	0.72	3
bin	0.74	2
bin	0.76	2
bin	0.78	1
bin	0.8	2
bin	0.82	0
bin	0.84	2
bin	0.86	1
bin	0.88	1
bin	0.9	2
bin	0.92	6
bin	0.94	6
bin	0.96	4
bin	0.98	65
bin	1	43
bin	1.02	0
bin	1.04	0
bin	1.06	0
bin	1.08	0
bin	1.1	0
bin	1.12	0
bin	1.14	0
bin	1.16	0
bin	1.18	0
bin	1.2	0
bin	1.22	0
bin	1.24	0
bin	1.26	0
statistic UAVNetwork_Multi.hostA[0].wlan[0].radio bitErrorRate:histogram
field count 0
field mean nan
field stddev nan
field min nan
field max nan
field sum 0
field sqrsum 0
attr source bitErrorRate(packetSentToUpper)
attr title "Bit error rate, histogram"
bin	-inf	0
bin	0	0
bin	1	0
statistic UAVNetwork_Multi.hostA[0].wlan[0].radio symbolErrorRate:histogram
field count 0
field mean nan
field stddev nan
field min nan
field max nan
field sum 0
field sqrsum 0
attr source symbolErrorRate(packetSentToUpper)
attr title "Symbol error rate, histogram"
bin	-inf	0
bin	0	0
bin	1	0
scalar UAVNetwork_Multi.hostA[0].wlan[0].radio transmissionState:count 688
attr interpolationmode sample-hold
attr source transmissionStateChanged
attr title "Radio transmission state, count"
scalar UAVNetwork_Multi.hostA[0].wlan[0].radio receptionState:count 11283
attr interpolationmode sample-hold
attr source receptionStateChanged
attr title "Radio reception state, count"
scalar UAVNetwork_Multi.hostA[0].wlan[0].radio radioMode:count 347
attr interpolationmode sample-hold
attr source radioModeChanged
attr title "Radio mode, count"
statistic UAVNetwork_Multi.hostA[0].wlan[0].radio radioChannel:histogram
field count 1
field mean 0
field stddev nan
field min 0
field max 0
field sum 0
field sqrsum 0
attr interpolationmode sample-hold
attr source radioChannelChanged
attr title "Radio channel, histogram"
bin	-inf	0
bin	-0.5	0
bin	-0.48	0
bin	-0.46	0
bin	-0.44	0
bin	-0.42	0
bin	-0.4	0
bin	-0.38	0
bin	-0.36	0
bin	-0.34	0
bin	-0.32	0
bin	-0.3	0
bin	-0.28	0
bin	-0.26	0
bin	-0.24	0
bin	-0.22	0
bin	-0.2	0
bin	-0.18	0
bin	-0.16	0
bin	-0.14	0
bin	-0.12	0
bin	-0.1	0
bin	-0.08	0
bin	-0.06	0
bin	-0.04	0
bin	-0.02	0
bin	0	1
bin	0.02	0
bin	0.04	0
bin	0.06	0
bin	0.08	0
bin	0.1	0
bin	0.12	0
bin	0.14	0
bin	0.16	0
bin	0.18	0
bin	0.2	0
bin	0.22	0
bin	0.24	0
bin	0.26	0
bin	0.28	0
bin	0.3	0
bin	0.32	0
bin	0.34	0
bin	0.36	0
bin	0.38	0
bin	0.4	0
bin	0.42	0
bin	0.44	0
bin	0.46	0
bin	0.48	0
bin	0.5	0
scalar UAVNetwork_Multi.hostA[0].ipv4.ip packetDropAddressResolutionFailed:count 0
attr interpolationmode none
attr source packetDropReasonIsAddressResolutionFailed(packetDropped)
attr title "packet drop: address resolution failed, count"
scalar UAVNetwork_Multi.hostA[0].ipv4.ip packetDropAddressResolutionFailed:sum(packetBytes) 0
attr interpolationmode none
attr source packetDropReasonIsAddressResolutionFailed(packetDropped)
attr title "packet drop: address resolution failed, sum(packetBytes)"
scalar UAVNetwork_Multi.hostA[0].ipv4.ip packetDropHopLimitReached:count 0
attr interpolationmode none
attr source packetDropReasonIsHopLimitReached(packetDropped)
attr title "packet drop: hop limit reached, count"
scalar UAVNetwork_Multi.hostA[0].ipv4.ip packetDropHopLimitReached:sum(packetBytes) 0
attr interpolationmode none
attr source packetDropReasonIsHopLimitReached(packetDropped)
attr title "packet drop: hop limit reached, sum(packetBytes)"
scalar UAVNetwork_Multi.hostA[0].ipv4.ip packetDropForwardingDisabled:count 0
attr interpolationmode none
attr source packetDropReasonIsForwardingDisabled(packetDropped)
attr title "packet drop: forwarding disabled, count"
scalar UAVNetwork_Multi.hostA[0].ipv4.ip packetDropForwardingDisabled:sum(packetBytes) 0
attr interpolationmode none
attr source packetDropReasonIsForwardingDisabled(packetDropped)
attr title "packet drop: forwarding disabled, sum(packetBytes)"
scalar UAVNetwork_Multi.hostA[0].ipv4.ip packetDropNoInterfaceFound:count 0
attr interpolationmode none
attr source packetDropReasonIsNoInterfaceFound(packetDropped)
attr title "packet drop: no interface found, count"
scalar UAVNetwork_Multi.hostA[0].ipv4.ip packetDropNoInterfaceFound:sum(packetBytes) 0
attr interpolationmode none
attr source packetDropReasonIsNoInterfaceFound(packetDropped)
attr title "packet drop: no interface found, sum(packetBytes)"
scalar UAVNetwork_Multi.hostA[0].ipv4.ip packetDropNoRouteFound:count 0
attr interpolationmode none
attr source packetDropReasonIsNoRouteFound(packetDropped)
attr title "packet drop: no route found, count"
scalar UAVNetwork_Multi.hostA[0].ipv4.ip packetDropNoRouteFound:sum(packetBytes) 0
attr interpolationmode none
attr source packetDropReasonIsNoRouteFound(packetDropped)
attr title "packet drop: no route found, sum(packetBytes)"
scalar UAVNetwork_Multi.hostA[0].ipv4.ip packetDropUndefined:count 0
attr interpolationmode none
attr source packetDropReasonIsUndefined(packetDropped)
attr title "packet drop: undefined, count"
scalar UAVNetwork_Multi.hostA[0].ipv4.ip packetDropUndefined:sum(packetBytes) 0
attr interpolationmode none
attr source packetDropReasonIsUndefined(packetDropped)
attr title "packet drop: undefined, sum(packetBytes)"
scalar UAVNetwork_Multi.hostA[0].udp packetReceived:count 0
attr interpolationmode none
attr source packetReceived
attr title "packets received, count"
scalar UAVNetwork_Multi.hostA[0].udp packetReceived:sum(packetBytes) 0
attr interpolationmode none
attr source packetReceived
attr title "packets received, sum(packetBytes)"
scalar UAVNetwork_Multi.hostA[0].udp packetSent:count 0
attr interpolationmode none
attr source packetSent
attr title "packets sent, count"
scalar UAVNetwork_Multi.hostA[0].udp packetSent:sum(packetBytes) 0
attr interpolationmode none
attr source packetSent
attr title "packets sent, sum(packetBytes)"
scalar UAVNetwork_Multi.hostA[0].udp passedUpPk:count 0
attr interpolationmode none
attr source packetSentToUpper
attr title "packets passed up, count"
scalar UAVNetwork_Multi.hostA[0].udp droppedPkWrongPort:count 0
attr interpolationmode none
attr source packetDropReasonIsNoPortFound(packetDropped)
attr title "packets dropped (wrong port), count"
scalar UAVNetwork_Multi.hostA[0].udp droppedPkBadChecksum:count 0
attr interpolationmode none
attr source packetDropReasonIsIncorrectlyReceived(packetDropped)
attr title "packets dropped (checksum error), count"
scalar UAVNetwork_Multi.hostA[0].app[0] "Pings sent" 54
scalar UAVNetwork_Multi.hostA[0].app[0] "ping loss rate (%)" 0
scalar UAVNetwork_Multi.hostA[0].app[0] "ping out-of-order rate (%)" 0
scalar UAVNetwork_Multi.hostA[0].app[0] pingRxSeq:count 54
attr interpolationmode none
attr title "ping rx seq, count"
scalar UAVNetwork_Multi.hostA[0].app[0] pingTxSeq:count 54
attr interpolationmode none
attr title "ping tx seq, count"
scalar UAVNetwork_Multi.hostA[0].app[0] numOutOfOrderArrivals:last nan
attr interpolationmode none
attr title "ping out-of-order arrivals, last"
scalar UAVNetwork_Multi.hostA[0].app[0] numLost:last nan
attr interpolationmode none
attr title "pings lost, last"
statistic UAVNetwork_Multi.hostA[0].app[0] rtt:histogram
field count 54
field mean 0.0053486891738704
field stddev 0.0137515312456
field min 0.002668942223
field max 0.101836719753
field sum 0.288829215389
field sqrsum 0.01156740211218
attr interpolationmode none
attr title "ping round-trip time, histogram"
attr unit s
bin	-inf	0
bin	0	0
bin	0.002	51
bin	0.004	0
bin	0.006	0
bin	0.008	0
bin	0.01	1
bin	0.012	0
bin	0.014	0
bin	0.016	0
bin	0.018	0
bin	0.02	0
bin	0.022	0
bin	0.024	1
bin	0.026	0
bin	0.028	0
bin	0.03	0
bin	0.032	0
bin	0.034	0
bin	0.036	0
bin	0.038	0
bin	0.04	0
bin	0.042	0
bin	0.044	0
bin	0.046	0
bin	0.048	0
bin	0.05	0
bin	0.052	0
bin	0.054	0
bin	0.056	0
bin	0.058	0
bin	0.06	0
bin	0.062	0
bin	0.064	0
bin	0.066	0
bin	0.068	0
bin	0.07	0
bin	0.072	0
bin	0.074	0
bin	0.076	0
bin	0.078	0
bin	0.08	0
bin	0.082	0
bin	0.084	0
bin	0.086	0
bin	0.088	0
bin	0.09	0
bin	0.092	0
bin	0.094	0
bin	0.096	0
bin	0.098	0
bin	0.1	1
bin	0.102	0
bin	0.104	0
bin	0.106	0
bin	0.108	0
bin	0.11	0
bin	0.112	0
bin	0.114	0
bin	0.116	0
bin	0.118	0
bin	0.12	0
bin	0.122	0
bin	0.124	0
bin	0.126	0
bin	0.128	0
scalar UAVNetwork_Multi.hostA[1].lo[0].lo rcvdPkFromHl:count 0
attr interpolationmode none
attr source packetReceivedFromUpper
attr title "packets received from higher layer, count"
scalar UAVNetwork_Multi.hostA[1].lo[0].lo rcvdPkFromHl:sum(packetBytes) 0
attr interpolationmode none
attr source packetReceivedFromUpper
attr title "packets received from higher layer, sum(packetBytes)"
scalar UAVNetwork_Multi.hostA[1].lo[0].lo passedUpPk:count 0
attr interpolationmode none
attr source packetSentToUpper
attr title "packets passed to higher layer, count"
scalar UAVNetwork_Multi.hostA[1].lo[0].lo passedUpPk:sum(packetBytes) 0
attr interpolationmode none
attr source packetSentToUpper
attr title "packets passed to higher layer, sum(packetBytes)"
scalar UAVNetwork_Multi.hostA[1].wlan[0].mac rcvdPkFromLl:count 5343
attr interpolationmode none
attr source packetReceivedFromLower
attr title "packets received from lower layer, count"
scalar UAVNetwork_Multi.hostA[1].wlan[0].mac rcvdPkFromLl:sum(packetBytes) 375678
attr interpolationmode none
attr source packetReceivedFromLower
attr title "packets received from lower layer, sum(packetBytes)"
scalar UAVNetwork_Multi.hostA[1].wlan[0].mac sentDownPk:count 173
attr interpolationmode none
attr source packetSentToLower
attr title "packets sent to lower layer, count"
scalar UAVNetwork_Multi.hostA[1].wlan[0].mac sentDownPk:sum(packetBytes) 13676
attr interpolationmode none
attr source packetSentToLower
attr title "packets sent to lower layer, sum(packetBytes)"
scalar UAVNetwork_Multi.hostA[1].wlan[0].mac rcvdPkFromHl:count 88
attr interpolationmode none
attr source packetReceivedFromUpper
attr title "packets received from higher layer, count"
scalar UAVNetwork_Multi.hostA[1].wlan[0].mac rcvdPkFromHl:sum(packetBytes) 6968
attr interpolationmode none
attr source packetReceivedFromUpper
attr title "packets received from higher layer, sum(packetBytes)"
scalar UAVNetwork_Multi.hostA[1].wlan[0].mac passedUpPk:count 323
attr interpolationmode none
attr source packetSentToUpper
attr title "packets passed to higher layer, count"
scalar UAVNetwork_Multi.hostA[1].wlan[0].mac passedUpPk:sum(packetBytes) 20636
attr interpolationmode none
attr source packetSentToUpper
attr title "packets passed to higher layer, sum(packetBytes)"
scalar UAVNetwork_Multi.hostA[1].wlan[0].mac packetDropIncorrectlyReceived:count 176
attr interpolationmode none
attr source packetDropReasonIsIncorrectlyReceived(packetDropped)
attr title "packet drop: incorrectly received, count"
scalar UAVNetwork_Multi.hostA[1].wlan[0].mac packetDropIncorrectlyReceived:sum(packetBytes) 16102
attr interpolationmode none
attr source packetDropReasonIsIncorrectlyReceived(packetDropped)
attr title "packet drop: incorrectly received, sum(packetBytes)"
scalar UAVNetwork_Multi.hostA[1].wlan[0].mac packetDropNotAddressedToUs:count 4787
attr interpolationmode none
attr source packetDropReasonIsNotAddressedToUs(packetDropped)
attr title "packet drop: not addressed to us, count"
scalar UAVNetwork_Multi.hostA[1].wlan[0].mac packetDropNotAddressedToUs:sum(packetBytes) 329098
attr interpolationmode none
attr source packetDropReasonIsNotAddressedToUs(packetDropped)
attr title "packet drop: not addressed to us, sum(packetBytes)"
scalar UAVNetwork_Multi.hostA[1].wlan[0].mac packetDropQueueOverflow:count 0
attr interpolationmode none
attr source packetDropReasonIsQueueOverflow(packetDropped)
attr title "packet drop: queue overflow, count"
scalar UAVNetwork_Multi.hostA[1].wlan[0].mac packetDropQueueOverflow:sum(packetBytes) 0
attr interpolationmode none
attr source packetDropReasonIsQueueOverflow(packetDropped)
attr title "packet drop: queue overflow, sum(packetBytes)"
scalar UAVNetwork_Multi.hostA[1].wlan[0].mac packetDropRetryLimitReached:count 4
attr interpolationmode none
attr source packetDropReasonIsRetryLimitReached(packetDropped)
attr title "packet drop: retry limit reached, count"
scalar UAVNetwork_Multi.hostA[1].wlan[0].mac packetDropRetryLimitReached:sum(packetBytes) 336
attr interpolationmode none
attr source packetDropReasonIsRetryLimitReached(packetDropped)
attr title "packet drop: retry limit reached, sum(packetBytes)"
scalar UAVNetwork_Multi.hostA[1].wlan[0].mac linkBroken:count 4
attr interpolationmode none
attr source linkBroken
attr title "link break, count"
statistic UAVNetwork_Multi.hostA[1].wlan[0].radio minSnir:histogram
field count 5343
field mean 4715.0450311703
field stddev 11162.842484463
field min 0.02368871736661
field max 170418.91170532
field sum 25192485.601543
field sqrsum 784445261620.96
attr source minimumSnir(packetSentToUpper)
attr title "Min SNIR, histogram"
bin	-inf	0
bin	0	4096
bin	3600	540
bin	7200	116
bin	10800	63
bin	14400	108
bin	18000	90
bin	21600	47
bin	25200	54
bin	28800	44
bin	32400	34
bin	36000	14
bin	39600	17
bin	43200	19
bin	46800	16
bin	50400	10
bin	54000	18
bin	57600	15
bin	61200	6
bin	64800	11
bin	68400	5
bin	72000	2
bin	75600	7
bin	79200	2
bin	82800	0
bin	86400	3
bin	90000	4
bin	93600	0
bin	97200	0
bin	100800	0
bin	104400	0
bin	108000	0
bin	111600	0
bin	115200	0
bin	118800	0
bin	122400	0
bin	126000	0
bin	129600	0
bin	133200	0
bin	136800	0
bin	140400	0
bin	144000	0
bin	147600	0
bin	151200	0
bin	154800	0
bin	158400	0
bin	162000	0
bin	165600	1
bin	169200	1
bin	172800	0
statistic UAVNetwork_Multi.hostA[1].wlan[0].radio packetErrorRate:histogram
field count 5343
field mean 0.031607968252516
field stddev 0.16469774042919
field min 0
field max 1
field sum 168.88137437319
field sqrsum 150.24159386229
attr source packetErrorRate(packetSentToUpper)
attr title "Packet error rate, histogram"
bin	-inf	0
bin	0	5073
bin	0.02	25
bin	0.04	16
bin	0.06	5
bin	0.08	9
bin	0.1	9
bin	0.12	4
bin	0.14	3
bin	0.16	6
bin	0.18	6
bin	0.2	3
bin	0.22	0
bin	0.24	2
bin	0.26	1
bin	0.28	2
bin	0.3	2
bin	0.32	1
bin	0.34	0
bin	0.36	2
bin	0.38	1
bin	0.4	0
bin	0.42	2
bin	0.44	4
bin	0.46	1
bin	0.48	2
bin	0.5	1
bin	0.52	2
bin	0.54	2
bin	0.56	0
bin	0.58	1
bin	0.6	1
bin	0.62	2
bin	0.64	1
bin	0.66	3
bin	0.68	4
bin	0.7	1
bin	0.72	1
bin	0.74	3
bin	0.76	0
bin	0.78	0
bin	0.8	3
bin	0.82	3
bin	0.84	0
bin	0.86	2
bin	0.88	2
bin	0.9	3
bin	0.92	5
bin	0.94	5
bin	0.96	5
bin	0.98	62
bin	1	52
bin	1.02	0
bin	1.04	0
bin	1.06	0
bin	1.08	0
bin	1.1	0
bin	1.12	0
bin	1.14	0
bin	1.16	0
bin	1.18	0
bin	1.2	0
bin	1.22	0
bin	1.24	0
bin	1.26	0
statistic UAVNetwork_Multi.hostA[1].wlan[0].radio bitErrorRate:histogram
field count 0
field mean nan
field stddev nan
field min nan
field max nan
field sum 0
field sqrsum 0
attr source bitErrorRate(packetSentToUpper)
attr title "Bit error rate, histogram"
bin	-inf	0
bin	0	0
bin	1	0
statistic UAVNetwork_Multi.hostA[1].wlan[0].radio symbolErrorRate:histogram
field count 0
field mean nan
field stddev nan
field min nan
field max nan
field sum 0
field sqrsum 0
attr source symbolErrorRate(packetSentToUpper)
attr title "Symbol error rate, histogram"
bin	-inf	0
bin	0	0
bin	1	0
scalar UAVNetwork_Multi.hostA[1].wlan[0].radio transmissionState:count 692
attr interpolationmode sample-hold
attr source transmissionStateChanged
attr title "Radio transmission state, count"
scalar UAVNetwork_Multi.hostA[1].wlan[0].radio receptionState:count 11322
attr interpolationmode sample-hold
attr source receptionStateChanged
attr title "Radio reception state, count"
scalar UAVNetwork_Multi.hostA[1].wlan[0].radio radioMode:count 349
attr interpolationmode sample-hold
attr source radioModeChanged
attr title "Radio mode, count"
statistic UAVNetwork_Multi.hostA[1].wlan[0].radio radioChannel:histogram
field count 1
field mean 0
field stddev nan
field min 0
field max 0
field sum 0
field sqrsum 0
attr interpolationmode sample-hold
attr source radioChannelChanged
attr title "Radio channel, histogram"
bin	-inf	0
bin	-0.5	0
bin	-0.48	0
bin	-0.46	0
bin	-0.44	0
bin	-0.42	0
bin	-0.4	0
bin	-0.38	0
bin	-0.36	0
bin	-0.34	0
bin	-0.32	0
bin	-0.3	0
bin	-0.28	0
bin	-0.26	0
bin	-0.24	0
bin	-0.22	0
bin	-0.2	0
bin	-0.18	0
bin	-0.16	0
bin	-0.14	0
bin	-0.12	0
bin	-0.1	0
bin	-0.08	0
bin	-0.06	0
bin	-0.04	0
bin	-0.02	0
bin	0	1
bin	0.02	0
bin	0.04	0
bin	0.06	0
bin	0.08	0
bin	0.1	0
bin	0.12	0
bin	0.14	0
bin	0.16	0
bin	0.18	0
bin	0.2	0
bin	0.22	0
bin	0.24	0
bin	0.26	0
bin	0.28	0
bin	0.3	0
bin	0.32	0
bin	0.34	0
bin	0.36	0
bin	0.38	0
bin	0.4	0
bin	0.42	0
bin	0.44	0
bin	0.46	0
bin	0.48	0
bin	0.5	0
scalar UAVNetwork_Multi.hostA[1].ipv4.ip packetDropAddressResolutionFailed:count 0
attr interpolationmode none
attr source packetDropReasonIsAddressResolutionFailed(packetDropped)
attr title "packet drop: address resolution failed, count"
scalar UAVNetwork_Multi.hostA[1].ipv4.ip packetDropAddressResolutionFailed:sum(packetBytes) 0
attr interpolationmode none
attr source packetDropReasonIsAddressResolutionFailed(packetDropped)
attr title "packet drop: address resolution failed, sum(packetBytes)"
scalar UAVNetwork_Multi.hostA[1].ipv4.ip packetDropHopLimitReached:count 0
attr interpolationmode none
attr source packetDropReasonIsHopLimitReached(packetDropped)
attr title "packet drop: hop limit reached, count"
scalar UAVNetwork_Multi.hostA[1].ipv4.ip packetDropHopLimitReached:sum(packetBytes) 0
attr interpolationmode none
attr source packetDropReasonIsHopLimitReached(packetDropped)
attr title "packet drop: hop limit reached, sum(packetBytes)"
scalar UAVNetwork_Multi.hostA[1].ipv4.ip packetDropForwardingDisabled:count 1
attr interpolationmode none
attr source packetDropReasonIsForwardingDisabled(packetDropped)
attr title "packet drop: forwarding disabled, count"
scalar UAVNetwork_Multi.hostA[1].ipv4.ip packetDropForwardingDisabled:sum(packetBytes) 84
attr interpolationmode none
attr source packetDropReasonIsForwardingDisabled(packetDropped)
attr title "packet drop: forwarding disabled, sum(packetBytes)"
scalar UAVNetwork_Multi.hostA[1].ipv4.ip packetDropNoInterfaceFound:count 0
attr interpolationmode none
attr source packetDropReasonIsNoInterfaceFound(packetDropped)
attr title "packet drop: no interface found, count"
scalar UAVNetwork_Multi.hostA[1].ipv4.ip packetDropNoInterfaceFound:sum(packetBytes) 0
attr interpolationmode none
attr source packetDropReasonIsNoInterfaceFound(packetDropped)
attr title "packet drop: no interface found, sum(packetBytes)"
scalar UAVNetwork_Multi.hostA[1].ipv4.ip packetDropNoRouteFound:count 0
attr interpolationmode none
attr source packetDropReasonIsNoRouteFound(packetDropped)
attr title "packet drop: no route found, count"
scalar UAVNetwork_Multi.hostA[1].ipv4.ip packetDropNoRouteFound:sum(packetBytes) 0
attr interpolationmode none
attr source packetDropReasonIsNoRouteFound(packetDropped)
attr title "packet drop: no route found, sum(packetBytes)"
scalar UAVNetwork_Multi.hostA[1].ipv4.ip packetDropUndefined:count 0
attr interpolationmode none
attr source packetDropReasonIsUndefined(packetDropped)
attr title "packet drop: undefined, count"
scalar UAVNetwork_Multi.hostA[1].ipv4.ip packetDropUndefined:sum(packetBytes) 0
attr interpolationmode none
attr source packetDropReasonIsUndefined(packetDropped)
attr title "packet drop: undefined, sum(packetBytes)"
scalar UAVNetwork_Multi.hostA[1].udp packetReceived:count 0
attr interpolationmode none
attr source packetReceived
attr title "packets received, count"
scalar UAVNetwork_Multi.hostA[1].udp packetReceived:sum(packetBytes) 0
attr interpolationmode none
attr source packetReceived
attr title "packets received, sum(packetBytes)"
scalar UAVNetwork_Multi.hostA[1].udp packetSent:count 0
attr interpolationmode none
attr source packetSent
attr title "packets sent, count"
scalar UAVNetwork_Multi.hostA[1].udp packetSent:sum(packetBytes) 0
attr interpolationmode none
attr source packetSent
attr title "packets sent, sum(packetBytes)"
scalar UAVNetwork_Multi.hostA[1].udp passedUpPk:count 0
attr interpolationmode none
attr source packetSentToUpper
attr title "packets passed up, count"
scalar UAVNetwork_Multi.hostA[1].udp droppedPkWrongPort:count 0
attr interpolationmode none
attr source packetDropReasonIsNoPortFound(packetDropped)
attr title "packets dropped (wrong port), count"
scalar UAVNetwork_Multi.hostA[1].udp droppedPkBadChecksum:count 0
attr interpolationmode none
attr source packetDropReasonIsIncorrectlyReceived(packetDropped)
attr title "packets dropped (checksum error), count"
scalar UAVNetwork_Multi.hostA[1].app[0] "Pings sent" 54
scalar UAVNetwork_Multi.hostA[1].app[0] "ping loss rate (%)" 16.666666666667
scalar UAVNetwork_Multi.hostA[1].app[0] "ping out-of-order rate (%)" 0
scalar UAVNetwork_Multi.hostA[1].app[0] pingRxSeq:count 45
attr interpolationmode none
attr title "ping rx seq, count"
scalar UAVNetwork_Multi.hostA[1].app[0] pingTxSeq:count 54
attr interpolationmode none
attr title "ping tx seq, count"
scalar UAVNetwork_Multi.hostA[1].app[0] numOutOfOrderArrivals:last nan
attr interpolationmode none
attr title "ping out-of-order arrivals, last"
scalar UAVNetwork_Multi.hostA[1].app[0] numLost:last 9
attr interpolationmode none
attr title "pings lost, last"
statistic UAVNetwork_Multi.hostA[1].app[0] rtt:histogram
field count 45
field mean 0.0055760167557556
field stddev 0.003594972369312
field min 0.002722420555
field max 0.021348292411
field sum 0.250920754009
field sqrsum 0.0019677866875101
attr interpolationmode none
attr title "ping round-trip time, histogram"
attr unit s
bin	-inf	0
bin	0	0
bin	0.0005	0
bin	0.001	0
bin	0.0015	0
bin	0.002	0
bin	0.0025	2
bin	0.003	5
bin	0.0035	0
bin	0.004	5
bin	0.0045	19
bin	0.005	8
bin	0.0055	1
bin	0.006	0
bin	0.0065	0
bin	0.007	0
bin	0.0075	0
bin	0.008	0
bin	0.0085	0
bin	0.009	2
bin	0.0095	0
bin	0.01	0
bin	0.0105	1
bin	0.011	0
bin	0.0115	0
bin	0.012	0
bin	0.0125	0
bin	0.013	0
bin	0.0135	0
bin	0.014	0
bin	0.0145	0
bin	0.015	0
bin	0.0155	0
bin	0.016	0
bin	0.0165	0
bin	0.017	0
bin	0.0175	0
bin	0.018	0
bin	0.0185	0
bin	0.019	0
bin	0.0195	1
bin	0.02	0
bin	0.0205	0
bin	0.021	1
bin	0.0215	0
bin	0.022	0
bin	0.0225	0
bin	0.023	0
bin	0.0235	0
bin	0.024	0
bin	0.0245	0
bin	0.025	0
bin	0.0255	0
bin	0.026	0
bin	0.0265	0
scalar UAVNetwork_Multi.hostA[2].lo[0].lo rcvdPkFromHl:count 0
attr interpolationmode none
attr source packetReceivedFromUpper
attr title "packets received from higher layer, count"
scalar UAVNetwork_Multi.hostA[2].lo[0].lo rcvdPkFromHl:sum(packetBytes) 0
attr interpolationmode none
attr source packetReceivedFromUpper
attr title "packets received from higher layer, sum(packetBytes)"
scalar UAVNetwork_Multi.hostA[2].lo[0].lo passedUpPk:count 0
attr interpolationmode none
attr source packetSentToUpper
attr title "packets passed to higher layer, count"
scalar UAVNetwork_Multi.hostA[2].lo[0].lo passedUpPk:sum(packetBytes) 0
attr interpolationmode none
attr source packetSentToUpper
attr title "packets passed to higher layer, sum(packetBytes)"
scalar UAVNetwork_Multi.hostA[2].wlan[0].mac rcvdPkFromLl:count 5311
attr interpolationmode none
attr source packetReceivedFromLower
attr title "packets received from lower layer, count"
scalar UAVNetwork_Multi.hostA[2].wlan[0].mac rcvdPkFromLl:sum(packetBytes) 374804
attr interpolationmode none
attr source packetReceivedFromLower
attr title "packets received from lower layer, sum(packetBytes)"
scalar UAVNetwork_Multi.hostA[2].wlan[0].mac sentDownPk:count 189
attr interpolationmode none
attr source packetSentToLower
attr title "packets sent to lower layer, count"
scalar UAVNetwork_Multi.hostA[2].wlan[0].mac sentDownPk:sum(packetBytes) 12656
attr interpolationmode none
attr source packetSentToLower
attr title "packets sent to lower layer, sum(packetBytes)"
scalar UAVNetwork_Multi.hostA[2].wlan[0].mac rcvdPkFromHl:count 89
attr interpolationmode none
attr source packetReceivedFromUpper
attr title "packets received from higher layer, count"
scalar UAVNetwork_Multi.hostA[2].wlan[0].mac rcvdPkFromHl:sum(packetBytes) 7008
attr interpolationmode none
attr source packetReceivedFromUpper
attr title "packets received from higher layer, sum(packetBytes)"
scalar UAVNetwork_Multi.hostA[2].wlan[0].mac passedUpPk:count 362
attr interpolationmode none
attr source packetSentToUpper
attr title "packets passed to higher layer, count"
scalar UAVNetwork_Multi.hostA[2].wlan[0].mac passedUpPk:sum(packetBytes) 23984
attr interpolationmode none
attr source packetSentToUpper
attr title "packets passed to higher layer, sum(packetBytes)"
scalar UAVNetwork_Multi.hostA[2].wlan[0].mac packetDropIncorrectlyReceived:count 183
attr interpolationmode none
attr source packetDropReasonIsIncorrectlyReceived(packetDropped)
attr title "packet drop: incorrectly received, count"
scalar UAVNetwork_Multi.hostA[2].wlan[0].mac packetDropIncorrectlyReceived:sum(packetBytes) 16326
attr interpolationmode none
attr source packetDropReasonIsIncorrectlyReceived(packetDropped)
attr title "packet drop: incorrectly received, sum(packetBytes)"
scalar UAVNetwork_Multi.hostA[2].wlan[0].mac packetDropNotAddressedToUs:count 4713
attr interpolationmode none
attr source packetDropReasonIsNotAddressedToUs(packetDropped)
attr title "packet drop: not addressed to us, count"
scalar UAVNetwork_Multi.hostA[2].wlan[0].mac packetDropNotAddressedToUs:sum(packetBytes) 323616
attr interpolationmode none
attr source packetDropReasonIsNotAddressedToUs(packetDropped)
attr title "packet drop: not addressed to us, sum(packetBytes)"
scalar UAVNetwork_Multi.hostA[2].wlan[0].mac packetDropQueueOverflow:count 0
attr interpolationmode none
attr source packetDropReasonIsQueueOverflow(packetDropped)
attr title "packet drop: queue overflow, count"
scalar UAVNetwork_Multi.hostA[2].wlan[0].mac packetDropQueueOverflow:sum(packetBytes) 0
attr interpolationmode none
attr source packetDropReasonIsQueueOverflow(packetDropped)
attr title "packet drop: queue overflow, sum(packetBytes)"
scalar UAVNetwork_Multi.hostA[2].wlan[0].mac packetDropRetryLimitReached:count 3
attr interpolationmode none
attr source packetDropReasonIsRetryLimitReached(packetDropped)
attr title "packet drop: retry limit reached, count"
scalar UAVNetwork_Multi.hostA[2].wlan[0].mac packetDropRetryLimitReached:sum(packetBytes) 288
attr interpolationmode none
attr source packetDropReasonIsRetryLimitReached(packetDropped)
attr title "packet drop: retry limit reached, sum(packetBytes)"
scalar UAVNetwork_Multi.hostA[2].wlan[0].mac linkBroken:count 3
attr interpolationmode none
attr source linkBroken
attr title "link break, count"
statistic UAVNetwork_Multi.hostA[2].wlan[0].radio minSnir:histogram
field count 5311
field mean 7250.7180312335
field stddev 44898.835399618
field min 0.090675651363743
field max 945044.72061389
field sum 38508563.463881
field sqrsum 10983672516949
attr source minimumSnir(packetSentToUpper)
attr title "Min SNIR, histogram"
bin	-inf	0
bin	0	4943
bin	14400	159
bin	28800	74
bin	43200	30
bin	57600	20
bin	72000	8
bin	86400	22
bin	100800	8
bin	115200	6
bin	129600	0
bin	144000	0
bin	158400	4
bin	172800	0
bin	187200	4
bin	201600	0
bin	216000	4
bin	230400	0
bin	244800	2
bin	259200	2
bin	273600	1
bin	288000	3
bin	302400	1
bin	316800	0
bin	331200	0
bin	345600	0
bin	360000	2
bin	374400	2
bin	388800	0
bin	403200	0
bin	417600	0
bin	432000	0
bin	446400	0
bin	460800	0
bin	475200	0
bin	489600	0
bin	504000	0
bin	518400	0
bin	532800	2
bin	547200	0
bin	561600	0
bin	576000	0
bin	590400	2
bin	604800	2
bin	619200	2
bin	633600	0
bin	648000	0
bin	662400	0
bin	676800	0
bin	691200	2
bin	705600	0
bin	720000	0
bin	734400	0
bin	748800	0
bin	763200	0
bin	777600	0
bin	792000	0
bin	806400	0
bin	820800	0
bin	835200	2
bin	849600	2
bin	864000	0
bin	878400	0
bin	892800	0
bin	907200	0
bin	921600	0
bin	936000	2
bin	950400	0
statistic UAVNetwork_Multi.hostA[2].wlan[0].radio packetErrorRate:histogram
field count 5311
field mean 0.034050040172205
field stddev 0.17335861000283
field min 0
field max 1
field sum 180.83976335458
field sqrsum 165.74013389277
attr source packetErrorRate(packetSentToUpper)
attr title "Packet error rate, histogram"
bin	-inf	0
bin	0	5056
bin	0.02	18
bin	0.04	11
bin	0.06	8
bin	0.08	1
bin	0.1	5
bin	0.12	3
bin	0.14	2
bin	0.16	2
bin	0.18	1
bin	0.2	4
bin	0.22	3
bin	0.24	1
bin	0.26	1
bin	0.28	2
bin	0.3	1
bin	0.32	2
bin	0.34	3
bin	0.36	2
bin	0.38	2
bin	0.4	1
bin	0.42	2
bin	0.44	2
bin	0.46	3
bin	0.48	2
bin	0.5	1
bin	0.52	0
bin	0.54	3
bin	0.56	1
bin	0.58	2
bin	0.6	0
bin	0.62	0
bin	0.64	1
bin	0.66	0
bin	0.68	0
bin	0.7	0
bin	0.72	3
bin	0.74	0
bin	0.76	1
bin	0.78	1
bin	0.8	0
bin	0.82	1
bin	0.84	2
bin	0.86	5
bin	0.88	1
bin	0.9	2
bin	0.92	2
bin	0.94	2
bin	0.96	7
bin	0.98	75
bin	1	63
bin	1.02	0
bin	1.04	0
bin	1.06	0
bin	1.08	0
bin	1.1	0
bin	1.12	0
bin	1.14	0
bin	1.16	0
bin	1.18	0
bin	1.2	0
bin	1.22	0
bin	1.24	0
bin	1.26	0
statistic UAVNetwork_Multi.hostA[2].wlan[0].radio bitErrorRate:histogram
field count 0
field mean nan
field stddev nan
field min nan
field max nan
field sum 0
field sqrsum 0
attr source bitErrorRate(packetSentToUpper)
attr title "Bit error rate, histogram"
bin	-inf	0
bin	0	0
bin	1	0
statistic UAVNetwork_Multi.hostA[2].wlan[0].radio symbolErrorRate:histogram
field count 0
field mean nan
field stddev nan
field min nan
field max nan
field sum 0
field sqrsum 0
attr source symbolErrorRate(packetSentToUpper)
attr title "Symbol error rate, histogram"
bin	-inf	0
bin	0	0
bin	1	0
scalar UAVNetwork_Multi.hostA[2].wlan[0].radio transmissionState:count 756
attr interpolationmode sample-hold
attr source transmissionStateChanged
attr title "Radio transmission state, count"
scalar UAVNetwork_Multi.hostA[2].wlan[0].radio receptionState:count 11225
attr interpolationmode sample-hold
attr source receptionStateChanged
attr title "Radio reception state, count"
scalar UAVNetwork_Multi.hostA[2].wlan[0].radio radioMode:count 381
attr interpolationmode sample-hold
attr source radioModeChanged
attr title "Radio mode, count"
statistic UAVNetwork_Multi.hostA[2].wlan[0].radio radioChannel:histogram
field count 1
field mean 0
field stddev nan
field min 0
field max 0
field sum 0
field sqrsum 0
attr interpolationmode sample-hold
attr source radioChannelChanged
attr title "Radio channel, histogram"
bin	-inf	0
bin	-0.5	0
bin	-0.48	0
bin	-0.46	0
bin	-0.44	0
bin	-0.42	0
bin	-0.4	0
bin	-0.38	0
bin	-0.36	0
bin	-0.34	0
bin	-0.32	0
bin	-0.3	0
bin	-0.28	0
bin	-0.26	0
bin	-0.24	0
bin	-0.22	0
bin	-0.2	0
bin	-0.18	0
bin	-0.16	0
bin	-0.14	0
bin	-0.12	0
bin	-0.1	0
bin	-0.08	0
bin	-0.06	0
bin	-0.04	0
bin	-0.02	0
bin	0	1
bin	0.02	0
bin	0.04	0
bin	0.06	0
bin	0.08	0
bin	0.1	0
bin	0.12	0
bin	0.14	0
bin	0.16	0
bin	0.18	0
bin	0.2	0
bin	0.22	0
bin	0.24	0
bin	0.26	0
bin	0.28	0
bin	0.3	0
bin	0.32	0
bin	0.34	0
bin	0.36	0
bin	0.38	0
bin	0.4	0
bin	0.42	0
bin	0.44	0
bin	0.46	0
bin	0.48	0
bin	0.5	0
scalar UAVNetwork_Multi.hostA[2].ipv4.ip packetDropAddressResolutionFailed:count 0
attr interpolationmode none
attr source packetDropReasonIsAddressResolutionFailed(packetDropped)
attr title "packet drop: address resolution failed, count"
scalar UAVNetwork_Multi.hostA[2].ipv4.ip packetDropAddressResolutionFailed:sum(packetBytes) 0
attr interpolationmode none
attr source packetDropReasonIsAddressResolutionFailed(packetDropped)
attr title "packet drop: address resolution failed, sum(packetBytes)"
scalar UAVNetwork_Multi.hostA[2].ipv4.ip packetDropHopLimitReached:count 0
attr interpolationmode none
attr source packetDropReasonIsHopLimitReached(packetDropped)
attr title "packet drop: hop limit reached, count"
scalar UAVNetwork_Multi.hostA[2].ipv4.ip packetDropHopLimitReached:sum(packetBytes) 0
attr interpolationmode none
attr source packetDropReasonIsHopLimitReached(packetDropped)
attr title "packet drop: hop limit reached, sum(packetBytes)"
scalar UAVNetwork_Multi.hostA[2].ipv4.ip packetDropForwardingDisabled:count 26
attr interpolationmode none
attr source packetDropReasonIsForwardingDisabled(packetDropped)
attr title "packet drop: forwarding disabled, count"
scalar UAVNetwork_Multi.hostA[2].ipv4.ip packetDropForwardingDisabled:sum(packetBytes) 2184
attr interpolationmode none
attr source packetDropReasonIsForwardingDisabled(packetDropped)
attr title "packet drop: forwarding disabled, sum(packetBytes)"
scalar UAVNetwork_Multi.hostA[2].ipv4.ip packetDropNoInterfaceFound:count 0
attr interpolationmode none
attr source packetDropReasonIsNoInterfaceFound(packetDropped)
attr title "packet drop: no interface found, count"
scalar UAVNetwork_Multi.hostA[2].ipv4.ip packetDropNoInterfaceFound:sum(packetBytes) 0
attr interpolationmode none
attr source packetDropReasonIsNoInterfaceFound(packetDropped)
attr title "packet drop: no interface found, sum(packetBytes)"
scalar UAVNetwork_Multi.hostA[2].ipv4.ip packetDropNoRouteFound:count 0
attr interpolationmode none
attr source packetDropReasonIsNoRouteFound(packetDropped)
attr title "packet drop: no route found, count"
scalar UAVNetwork_Multi.hostA[2].ipv4.ip packetDropNoRouteFound:sum(packetBytes) 0
attr interpolationmode none
attr source packetDropReasonIsNoRouteFound(packetDropped)
attr title "packet drop: no route found, sum(packetBytes)"
scalar UAVNetwork_Multi.hostA[2].ipv4.ip packetDropUndefined:count 0
attr interpolationmode none
attr source packetDropReasonIsUndefined(packetDropped)
attr title "packet drop: undefined, count"
scalar UAVNetwork_Multi.hostA[2].ipv4.ip packetDropUndefined:sum(packetBytes) 0
attr interpolationmode none
attr source packetDropReasonIsUndefined(packetDropped)
attr title "packet drop: undefined, sum(packetBytes)"
scalar UAVNetwork_Multi.hostA[2].udp packetReceived:count 0
attr interpolationmode none
attr source packetReceived
attr title "packets received, count"
scalar UAVNetwork_Multi.hostA[2].udp packetReceived:sum(packetBytes) 0
attr interpolationmode none
attr source packetReceived
attr title "packets received, sum(packetBytes)"
scalar UAVNetwork_Multi.hostA[2].udp packetSent:count 0
attr interpolationmode none
attr source packetSent
attr title "packets sent, count"
scalar UAVNetwork_Multi.hostA[2].udp packetSent:sum(packetBytes) 0
attr interpolationmode none
attr source packetSent
attr title "packets sent, sum(packetBytes)"
scalar UAVNetwork_Multi.hostA[2].udp passedUpPk:count 0
attr interpolationmode none
attr source packetSentToUpper
attr title "packets passed up, count"
scalar UAVNetwork_Multi.hostA[2].udp droppedPkWrongPort:count 0
attr interpolationmode none
attr source packetDropReasonIsNoPortFound(packetDropped)
attr title "packets dropped (wrong port), count"
scalar UAVNetwork_Multi.hostA[2].udp droppedPkBadChecksum:count 0
attr interpolationmode none
attr source packetDropReasonIsIncorrectlyReceived(packetDropped)
attr title "packets dropped (checksum error), count"
scalar UAVNetwork_Multi.hostA[2].app[0] "Pings sent" 53
scalar UAVNetwork_Multi.hostA[2].app[0] "ping loss rate (%)" 1.8867924528302
scalar UAVNetwork_Multi.hostA[2].app[0] "ping out-of-order rate (%)" 0
scalar UAVNetwork_Multi.hostA[2].app[0] pingRxSeq:count 52
attr interpolationmode none
attr title "ping rx seq, count"
scalar UAVNetwork_Multi.hostA[2].app[0] pingTxSeq:count 53
attr interpolationmode none
attr title "ping tx seq, count"
scalar UAVNetwork_Multi.hostA[2].app[0] numOutOfOrderArrivals:last nan
attr interpolationmode none
attr title "ping out-of-order arrivals, last"
scalar UAVNetwork_Multi.hostA[2].app[0] numLost:last 1
attr interpolationmode none
attr title "pings lost, last"
statistic UAVNetwork_Multi.hostA[2].app[0] rtt:histogram
field count 52
field mean 0.0048137979921154
field stddev 0.013149644076217
field min 0.002708354391
field max 0.097804437094
field sum 0.25031749559
field sqrsum 0.010023547963553
attr interpolationmode none
attr title "ping round-trip time, histogram"
attr unit s
bin	-inf	0
bin	0	0
bin	0.002	51
bin	0.004	0
bin	0.006	0
bin	0.008	0
bin	0.01	0
bin	0.012	0
bin	0.014	0
bin	0.016	0
bin	0.018	0
bin	0.02	0
bin	0.022	0
bin	0.024	0
bin	0.026	0
bin	0.028	0
bin	0.03	0
bin	0.032	0
bin	0.034	0
bin	0.036	0
bin	0.038	0
bin	0.04	0
bin	0.042	0
bin	0.044	0
bin	0.046	0
bin	0.048	0
bin	0.05	0
bin	0.052	0
bin	0.054	0
bin	0.056	0
bin	0.058	0
bin	0.06	0
bin	0.062	0
bin	0.064	0
bin	0.066	0
bin	0.068	0
bin	0.07	0
bin	0.072	0
bin	0.074	0
bin	0.076	0
bin	0.078	0
bin	0.08	0
bin	0.082	0
bin	0.084	0
bin	0.086	0
bin	0.088	0
bin	0.09	0
bin	0.092	0
bin	0.094	0
bin	0.096	1
bin	0.098	0
bin	0.1	0
bin	0.102	0
bin	0.104	0
bin	0.106	0
bin	0.108	0
bin	0.11	0
bin	0.112	0
bin	0.114	0
bin	0.116	0
bin	0.118	0
bin	0.12	0
bin	0.122	0
scalar UAVNetwork_Multi.hostA[3].lo[0].lo rcvdPkFromHl:count 0
attr interpolationmode none
attr source packetReceivedFromUpper
attr title "packets received from higher layer, count"
scalar UAVNetwork_Multi.hostA[3].lo[0].lo rcvdPkFromHl:sum(packetBytes) 0
attr interpolationmode none
attr source packetReceivedFromUpper
attr title "packets received from higher layer, sum(packetBytes)"
scalar UAVNetwork_Multi.hostA[3].lo[0].lo passedUpPk:count 0
attr interpolationmode none
attr source packetSentToUpper
attr title "packets passed to higher layer, count"
scalar UAVNetwork_Multi.hostA[3].lo[0].lo passedUpPk:sum(packetBytes) 0
attr interpolationmode none
attr source packetSentToUpper
attr title "packets passed to higher layer, sum(packetBytes)"
scalar UAVNetwork_Multi.hostA[3].wlan[0].mac rcvdPkFromLl:count 5292
attr interpolationmode none
attr source packetReceivedFromLower
attr title "packets received from lower layer, count"
scalar UAVNetwork_Multi.hostA[3].wlan[0].mac rcvdPkFromLl:sum(packetBytes) 373004
attr interpolationmode none
attr source packetReceivedFromLower
attr title "packets received from lower layer, sum(packetBytes)"
scalar UAVNetwork_Multi.hostA[3].wlan[0].mac sentDownPk:count 158
attr interpolationmode none
attr source packetSentToLower
attr title "packets sent to lower layer, count"
scalar UAVNetwork_Multi.hostA[3].wlan[0].mac sentDownPk:sum(packetBytes) 11630
attr interpolationmode none
attr source packetSentToLower
attr title "packets sent to lower layer, sum(packetBytes)"
scalar UAVNetwork_Multi.hostA[3].wlan[0].mac rcvdPkFromHl:count 90
attr interpolationmode none
attr source packetReceivedFromUpper
attr title "packets received from higher layer, count"
scalar UAVNetwork_Multi.hostA[3].wlan[0].mac rcvdPkFromHl:sum(packetBytes) 7072
attr interpolationmode none
attr source packetReceivedFromUpper
attr title "packets received from higher layer, sum(packetBytes)"
scalar UAVNetwork_Multi.hostA[3].wlan[0].mac passedUpPk:count 350
attr interpolationmode none
attr source packetSentToUpper
attr title "packets passed to higher layer, count"
scalar UAVNetwork_Multi.hostA[3].wlan[0].mac passedUpPk:sum(packetBytes) 22460
attr interpolationmode none
attr source packetSentToUpper
attr title "packets passed to higher layer, sum(packetBytes)"
scalar UAVNetwork_Multi.hostA[3].wlan[0].mac packetDropIncorrectlyReceived:count 152
attr interpolationmode none
attr source packetDropReasonIsIncorrectlyReceived(packetDropped)
attr title "packet drop: incorrectly received, count"
scalar UAVNetwork_Multi.hostA[3].wlan[0].mac packetDropIncorrectlyReceived:sum(packetBytes) 14126
attr interpolationmode none
attr source packetDropReasonIsIncorrectlyReceived(packetDropped)
attr title "packet drop: incorrectly received, sum(packetBytes)"
scalar UAVNetwork_Multi.hostA[3].wlan[0].mac packetDropNotAddressedToUs:count 4735
attr interpolationmode none
attr source packetDropReasonIsNotAddressedToUs(packetDropped)
attr title "packet drop: not addressed to us, count"
scalar UAVNetwork_Multi.hostA[3].wlan[0].mac packetDropNotAddressedToUs:sum(packetBytes) 325848
attr interpolationmode none
attr source packetDropReasonIsNotAddressedToUs(packetDropped)
attr title "packet drop: not addressed to us, sum(packetBytes)"
scalar UAVNetwork_Multi.hostA[3].wlan[0].mac packetDropQueueOverflow:count 0
attr interpolationmode none
attr source packetDropReasonIsQueueOverflow(packetDropped)
attr title "packet drop: queue overflow, count"
scalar UAVNetwork_Multi.hostA[3].wlan[0].mac packetDropQueueOverflow:sum(packetBytes) 0
attr interpolationmode none
attr source packetDropReasonIsQueueOverflow(packetDropped)
attr title "packet drop: queue overflow, sum(packetBytes)"
scalar UAVNetwork_Multi.hostA[3].wlan[0].mac packetDropRetryLimitReached:count 2
attr interpolationmode none
attr source packetDropReasonIsRetryLimitReached(packetDropped)
attr title "packet drop: retry limit reached, count"
scalar UAVNetwork_Multi.hostA[3].wlan[0].mac packetDropRetryLimitReached:sum(packetBytes) 168
attr interpolationmode none
attr source packetDropReasonIsRetryLimitReached(packetDropped)
attr title "packet drop: retry limit reached, sum(packetBytes)"
scalar UAVNetwork_Multi.hostA[3].wlan[0].mac linkBroken:count 2
attr interpolationmode none
attr source linkBroken
attr title "link break, count"
statistic UAVNetwork_Multi.hostA[3].wlan[0].radio minSnir:histogram
field count 5292
field mean 4301.3433174369
field stddev 12651.059253335
field min 0.056900163039298
field max 119180.38643326
field sum 22762708.835876
field sqrsum 944731073062.2
attr source minimumSnir(packetSentToUpper)
attr title "Min SNIR, histogram"
bin	-inf	0
bin	0	3773
bin	2000	444
bin	4000	337
bin	6000	150
bin	8000	93
bin	10000	122
bin	12000	45
bin	14000	42
bin	16000	47
bin	18000	15
bin	20000	9
bin	22000	4
bin	24000	13
bin	26000	20
bin	28000	9
bin	30000	16
bin	32000	18
bin	34000	16
bin	36000	14
bin	38000	13
bin	40000	2
bin	42000	1
bin	44000	0
bin	46000	4
bin	48000	2
bin	50000	4
bin	52000	6
bin	54000	0
bin	56000	2
bin	58000	6
bin	60000	2
bin	62000	2
bin	64000	0
bin	66000	0
bin	68000	0
bin	70000	0
bin	72000	2
bin	74000	0
bin	76000	2
bin	78000	2
bin	80000	2
bin	82000	0
bin	84000	0
bin	86000	4
bin	88000	4
bin	90000	0
bin	92000	2
bin	94000	4
bin	96000	1
bin	98000	1
bin	100000	3
bin	102000	2
bin	104000	4
bin	106000	2
bin	108000	0
bin	110000	7
bin	112000	3
bin	114000	2
bin	116000	6
bin	118000	8
bin	120000	0
bin	122000	0
bin	124000	0
bin	126000	0
bin	128000	0
bin	130000	0
statistic UAVNetwork_Multi.hostA[3].wlan[0].radio packetErrorRate:histogram
field count 5292
field mean 0.02915588036004
field stddev 0.15620173238378
field min 0
field max 1
field sum 154.29291886533
field sqrsum 133.59355541042
attr source packetErrorRate(packetSentToUpper)
attr title "Packet error rate, histogram"
bin	-inf	0
bin	0	5051
bin	0.02	14
bin	0.04	12
bin	0.06	7
bin	0.08	7
bin	0.1	5
bin	0.12	3
bin	0.14	2
bin	0.16	3
bin	0.18	5
bin	0.2	3
bin	0.22	4
bin	0.24	2
bin	0.26	2
bin	0.28	1
bin	0.3	0
bin	0.32	1
bin	0.34	1
bin	0.36	2
bin	0.38	2
bin	0.4	2
bin	0.42	2
bin	0.44	5
bin	0.46	0
bin	0.48	1
bin	0.5	4
bin	0.52	2
bin	0.54	4
bin	0.56	3
bin	0.58	4
bin	0.6	3
bin	0.62	3
bin	0.64	3
bin	0.66	0
bin	0.68	1
bin	0.7	3
bin	0.72	1
bin	0.74	3
bin	0.76	1
bin	0.78	2
bin	0.8	2
bin	0.82	1
bin	0.84	1
bin	0.86	1
bin	0.88	1
bin	0.9	2
bin	0.92	3
bin	0.94	3
bin	0.96	3
bin	0.98	75
bin	1	26
bin	1.02	0
bin	1.04	0
bin	1.06	0
bin	1.08	0
bin	1.1	0
bin	1.12	0
bin	1.14	0
bin	1.16	0
bin	1.18	0
bin	1.2	0
bin	1.22	0
bin	1.24	0
bin	1.26	0
statistic UAVNetwork_Multi.hostA[3].wlan[0].radio bitErrorRate:histogram
field count 0
field mean nan
field stddev nan
field min nan
field max nan
field sum 0
field sqrsum 0
attr source bitErrorRate(packetSentToUpper)
attr title "Bit error rate, histogram"
bin	-inf	0
bin	0	0
bin	1	0
statistic UAVNetwork_Multi.hostA[3].wlan[0].radio symbolErrorRate:histogram
field count 0
field mean nan
field stddev nan
field min nan
field max nan
field sum 0
field sqrsum 0
attr source symbolErrorRate(packetSentToUpper)
attr title "Symbol error rate, histogram"
bin	-inf	0
bin	0	0
bin	1	0
scalar UAVNetwork_Multi.hostA[3].wlan[0].radio transmissionState:count 632
attr interpolationmode sample-hold
attr source transmissionStateChanged
attr title "Radio transmission state, count"
scalar UAVNetwork_Multi.hostA[3].wlan[0].radio receptionState:count 11140
attr interpolationmode sample-hold
attr source receptionStateChanged
attr title "Radio reception state, count"
scalar UAVNetwork_Multi.hostA[3].wlan[0].radio radioMode:count 319
attr interpolationmode sample-hold
attr source radioModeChanged
attr title "Radio mode, count"
statistic UAVNetwork_Multi.hostA[3].wlan[0].radio radioChannel:histogram
field count 1
field mean 0
field stddev nan
field min 0
field max 0
field sum 0
field sqrsum 0
attr interpolationmode sample-hold
attr source radioChannelChanged
attr title "Radio channel, histogram"
bin	-inf	0
bin	-0.5	0
bin	-0.48	0
bin	-0.46	0
bin	-0.44	0
bin	-0.42	0
bin	-0.4	0
bin	-0.38	0
bin	-0.36	0
bin	-0.34	0
bin	-0.32	0
bin	-0.3	0
bin	-0.28	0
bin	-0.26	0
bin	-0.24	0
bin	-0.22	0
bin	-0.2	0
bin	-0.18	0
bin	-0.16	0
bin	-0.14	0
bin	-0.12	0
bin	-0.1	0
bin	-0.08	0
bin	-0.06	0
bin	-0.04	0
bin	-0.02	0
bin	0	1
bin	0.02	0
bin	0.04	0
bin	0.06	0
bin	0.08	0
bin	0.1	0
bin	0.12	0
bin	0.14	0
bin	0.16	0
bin	0.18	0
bin	0.2	0
bin	0.22	0
bin	0.24	0
bin	0.26	0
bin	0.28	0
bin	0.3	0
bin	0.32	0
bin	0.34	0
bin	0.36	0
bin	0.38	0
bin	0.4	0
bin	0.42	0
bin	0.44	0
bin	0.46	0
bin	0.48	0
bin	0.5	0
scalar UAVNetwork_Multi.hostA[3].ipv4.ip packetDropAddressResolutionFailed:count 0
attr interpolationmode none
attr source packetDropReasonIsAddressResolutionFailed(packetDropped)
attr title "packet drop: address resolution failed, count"
scalar UAVNetwork_Multi.hostA[3].ipv4.ip packetDropAddressResolutionFailed:sum(packetBytes) 0
attr interpolationmode none
attr source packetDropReasonIsAddressResolutionFailed(packetDropped)
attr title "packet drop: address resolution failed, sum(packetBytes)"
scalar UAVNetwork_Multi.hostA[3].ipv4.ip packetDropHopLimitReached:count 0
attr interpolationmode none
attr source packetDropReasonIsHopLimitReached(packetDropped)
attr title "packet drop: hop limit reached, count"
scalar UAVNetwork_Multi.hostA[3].ipv4.ip packetDropHopLimitReached:sum(packetBytes) 0
attr interpolationmode none
attr source packetDropReasonIsHopLimitReached(packetDropped)
attr title "packet drop: hop limit reached, sum(packetBytes)"
scalar UAVNetwork_Multi.hostA[3].ipv4.ip packetDropForwardingDisabled:count 0
attr interpolationmode none
attr source packetDropReasonIsForwardingDisabled(packetDropped)
attr title "packet drop: forwarding disabled, count"
scalar UAVNetwork_Multi.hostA[3].ipv4.ip packetDropForwardingDisabled:sum(packetBytes) 0
attr interpolationmode none
attr source packetDropReasonIsForwardingDisabled(packetDropped)
attr title "packet drop: forwarding disabled, sum(packetBytes)"
scalar UAVNetwork_Multi.hostA[3].ipv4.ip packetDropNoInterfaceFound:count 0
attr interpolationmode none
attr source packetDropReasonIsNoInterfaceFound(packetDropped)
attr title "packet drop: no interface found, count"
scalar UAVNetwork_Multi.hostA[3].ipv4.ip packetDropNoInterfaceFound:sum(packetBytes) 0
attr interpolationmode none
attr source packetDropReasonIsNoInterfaceFound(packetDropped)
attr title "packet drop: no interface found, sum(packetBytes)"
scalar UAVNetwork_Multi.hostA[3].ipv4.ip packetDropNoRouteFound:count 0
attr interpolationmode none
attr source packetDropReasonIsNoRouteFound(packetDropped)
attr title "packet drop: no route found, count"
scalar UAVNetwork_Multi.hostA[3].ipv4.ip packetDropNoRouteFound:sum(packetBytes) 0
attr interpolationmode none
attr source packetDropReasonIsNoRouteFound(packetDropped)
attr title "packet drop: no route found, sum(packetBytes)"
scalar UAVNetwork_Multi.hostA[3].ipv4.ip packetDropUndefined:count 0
attr interpolationmode none
attr source packetDropReasonIsUndefined(packetDropped)
attr title "packet drop: undefined, count"
scalar UAVNetwork_Multi.hostA[3].ipv4.ip packetDropUndefined:sum(packetBytes) 0
attr interpolationmode none
attr source packetDropReasonIsUndefined(packetDropped)
attr title "packet drop: undefined, sum(packetBytes)"
scalar UAVNetwork_Multi.hostA[3].udp packetReceived:count 0
attr interpolationmode none
attr source packetReceived
attr title "packets received, count"
scalar UAVNetwork_Multi.hostA[3].udp packetReceived:sum(packetBytes) 0
attr interpolationmode none
attr source packetReceived
attr title "packets received, sum(packetBytes)"
scalar UAVNetwork_Multi.hostA[3].udp packetSent:count 0
attr interpolationmode none
attr source packetSent
attr title "packets sent, count"
scalar UAVNetwork_Multi.hostA[3].udp packetSent:sum(packetBytes) 0
attr interpolationmode none
attr source packetSent
attr title "packets sent, sum(packetBytes)"
scalar UAVNetwork_Multi.hostA[3].udp passedUpPk:count 0
attr interpolationmode none
attr source packetSentToUpper
attr title "packets passed up, count"
scalar UAVNetwork_Multi.hostA[3].udp droppedPkWrongPort:count 0
attr interpolationmode none
attr source packetDropReasonIsNoPortFound(packetDropped)
attr title "packets dropped (wrong port), count"
scalar UAVNetwork_Multi.hostA[3].udp droppedPkBadChecksum:count 0
attr interpolationmode none
attr source packetDropReasonIsIncorrectlyReceived(packetDropped)
attr title "packets dropped (checksum error), count"
scalar UAVNetwork_Multi.hostA[3].app[0] "Pings sent" 53
scalar UAVNetwork_Multi.hostA[3].app[0] "ping loss rate (%)" 0
scalar UAVNetwork_Multi.hostA[3].app[0] "ping out-of-order rate (%)" 0
scalar UAVNetwork_Multi.hostA[3].app[0] pingRxSeq:count 53
attr interpolationmode none
attr title "ping rx seq, count"
scalar UAVNetwork_Multi.hostA[3].app[0] pingTxSeq:count 53
attr interpolationmode none
attr title "ping tx seq, count"
scalar UAVNetwork_Multi.hostA[3].app[0] numOutOfOrderArrivals:last nan
attr interpolationmode none
attr title "ping out-of-order arrivals, last"
scalar UAVNetwork_Multi.hostA[3].app[0] numLost:last nan
attr interpolationmode none
attr title "pings lost, last"
statistic UAVNetwork_Multi.hostA[3].app[0] rtt:histogram
field count 53
field mean 0.003017039146717
field stddev 0.0002893854818557
field min 0.002688934269
field max 0.0047248394
field sum 0.159903074776
field sqrsum 0.00048678852204927
attr interpolationmode none
attr title "ping round-trip time, histogram"
attr unit s
bin	-inf	0
bin	0.00215	0
bin	0.0022	0
bin	0.00225	0
bin	0.0023	0
bin	0.00235	0
bin	0.0024	0
bin	0.00245	0
bin	0.0025	0
bin	0.00255	0
bin	0.0026	0
bin	0.00265	2
bin	0.0027	4
bin	0.00275	2
bin	0.0028	2
bin	0.00285	5
bin	0.0029	9
bin	0.00295	8
bin	0.003	3
bin	0.00305	5
bin	0.0031	3
bin	0.00315	2
bin	0.0032	3
bin	0.00325	4
bin	0.0033	0
bin	0.00335	0
bin	0.0034	0
bin	0.00345	0
bin	0.0035	0
bin	0.00355	0
bin	0.0036	0
bin	0.00365	0
bin	0.0037	0
bin	0.00375	0
bin	0.0038	0
bin	0.00385	0
bin	0.0039	0
bin	0.00395	0
bin	0.004	0
bin	0.00405	0
bin	0.0041	0
bin	0.00415	0
bin	0.0042	0
bin	0.00425	0
bin	0.0043	0
bin	0.00435	0
bin	0.0044	0
bin	0.00445	0
bin	0.0045	0
bin	0.00455	0
bin	0.0046	0
bin	0.00465	0
bin	0.0047	1
bin	0.00475	0
bin	0.0048	0
bin	0.00485	0
bin	0.0049	0
bin	0.00495	0
bin	0.005	0
bin	0.00505	0
bin	0.0051	0
bin	0.00515	0
bin	0.0052	0
bin	0.00525	0
scalar UAVNetwork_Multi.hostA[4].lo[0].lo rcvdPkFromHl:count 0
attr interpolationmode none
attr source packetReceivedFromUpper
attr title "packets received from higher layer, count"
scalar UAVNetwork_Multi.hostA[4].lo[0].lo rcvdPkFromHl:sum(packetBytes) 0
attr interpolationmode none
attr source packetReceivedFromUpper
attr title "packets received from higher layer, sum(packetBytes)"
scalar UAVNetwork_Multi.hostA[4].lo[0].lo passedUpPk:count 0
attr interpolationmode none
attr source packetSentToUpper
attr title "packets passed to higher layer, count"
scalar UAVNetwork_Multi.hostA[4].lo[0].lo passedUpPk:sum(packetBytes) 0
attr interpolationmode none
attr source packetSentToUpper
attr title "packets passed to higher layer, sum(packetBytes)"
scalar UAVNetwork_Multi.hostA[4].wlan[0].mac rcvdPkFromLl:count 5331
attr interpolationmode none
attr source packetReceivedFromLower
attr title "packets received from lower layer, count"
scalar UAVNetwork_Multi.hostA[4].wlan[0].mac rcvdPkFromLl:sum(packetBytes) 376450
attr interpolationmode none
attr source packetReceivedFromLower
attr title "packets received from lower layer, sum(packetBytes)"
scalar UAVNetwork_Multi.hostA[4].wlan[0].mac sentDownPk:count 178
attr interpolationmode none
attr source packetSentToLower
attr title "packets sent to lower layer, count"
scalar UAVNetwork_Multi.hostA[4].wlan[0].mac sentDownPk:sum(packetBytes) 13448
attr interpolationmode none
attr source packetSentToLower
attr title "packets sent to lower layer, sum(packetBytes)"
scalar UAVNetwork_Multi.hostA[4].wlan[0].mac rcvdPkFromHl:count 92
attr interpolationmode none
attr source packetReceivedFromUpper
attr title "packets received from higher layer, count"
scalar UAVNetwork_Multi.hostA[4].wlan[0].mac rcvdPkFromHl:sum(packetBytes) 7212
attr interpolationmode none
attr source packetReceivedFromUpper
attr title "packets received from higher layer, sum(packetBytes)"
scalar UAVNetwork_Multi.hostA[4].wlan[0].mac passedUpPk:count 363
attr interpolationmode none
attr source packetSentToUpper
attr title "packets passed to higher layer, count"
scalar UAVNetwork_Multi.hostA[4].wlan[0].mac passedUpPk:sum(packetBytes) 23212
attr interpolationmode none
attr source packetSentToUpper
attr title "packets passed to higher layer, sum(packetBytes)"
scalar UAVNetwork_Multi.hostA[4].wlan[0].mac packetDropIncorrectlyReceived:count 145
attr interpolationmode none
attr source packetDropReasonIsIncorrectlyReceived(packetDropped)
attr title "packet drop: incorrectly received, count"
scalar UAVNetwork_Multi.hostA[4].wlan[0].mac packetDropIncorrectlyReceived:sum(packetBytes) 13444
attr interpolationmode none
attr source packetDropReasonIsIncorrectlyReceived(packetDropped)
attr title "packet drop: incorrectly received, sum(packetBytes)"
scalar UAVNetwork_Multi.hostA[4].wlan[0].mac packetDropNotAddressedToUs:count 4767
attr interpolationmode none
attr source packetDropReasonIsNotAddressedToUs(packetDropped)
attr title "packet drop: not addressed to us, count"
scalar UAVNetwork_Multi.hostA[4].wlan[0].mac packetDropNotAddressedToUs:sum(packetBytes) 328776
attr interpolationmode none
attr source packetDropReasonIsNotAddressedToUs(packetDropped)
attr title "packet drop: not addressed to us, sum(packetBytes)"
scalar UAVNetwork_Multi.hostA[4].wlan[0].mac packetDropQueueOverflow:count 0
attr interpolationmode none
attr source packetDropReasonIsQueueOverflow(packetDropped)
attr title "packet drop: queue overflow, count"
scalar UAVNetwork_Multi.hostA[4].wlan[0].mac packetDropQueueOverflow:sum(packetBytes) 0
attr interpolationmode none
attr source packetDropReasonIsQueueOverflow(packetDropped)
attr title "packet drop: queue overflow, sum(packetBytes)"
scalar UAVNetwork_Multi.hostA[4].wlan[0].mac packetDropRetryLimitReached:count 5
attr interpolationmode none
attr source packetDropReasonIsRetryLimitReached(packetDropped)
attr title "packet drop: retry limit reached, count"
scalar UAVNetwork_Multi.hostA[4].wlan[0].mac packetDropRetryLimitReached:sum(packetBytes) 456
attr interpolationmode none
attr source packetDropReasonIsRetryLimitReached(packetDropped)
attr title "packet drop: retry limit reached, sum(packetBytes)"
scalar UAVNetwork_Multi.hostA[4].wlan[0].mac linkBroken:count 5
attr interpolationmode none
attr source linkBroken
attr title "link break, count"
statistic UAVNetwork_Multi.hostA[4].wlan[0].radio minSnir:histogram
field count 5331
field mean 3778.411227498
field stddev 27393.701442604
field min 0.032689442661021
field max 633667.74980859
field sum 20142710.253792
field sqrsum 4075818746187.5
attr source minimumSnir(packetSentToUpper)
attr title "Min SNIR, histogram"
bin	-inf	0
bin	0	5131
bin	10000	109
bin	20000	27
bin	30000	11
bin	40000	7
bin	50000	10
bin	60000	3
bin	70000	3
bin	80000	0
bin	90000	6
bin	100000	0
bin	110000	2
bin	120000	2
bin	130000	2
bin	140000	2
bin	150000	2
bin	160000	0
bin	170000	2
bin	180000	0
bin	190000	0
bin	200000	0
bin	210000	0
bin	220000	0
bin	230000	1
bin	240000	1
bin	250000	0
bin	260000	0
bin	270000	0
bin	280000	0
bin	290000	0
bin	300000	0
bin	310000	0
bin	320000	0
bin	330000	0
bin	340000	0
bin	350000	0
bin	360000	0
bin	370000	0
bin	380000	0
bin	390000	0
bin	400000	0
bin	410000	0
bin	420000	0
bin	430000	0
bin	440000	0
bin	450000	0
bin	460000	0
bin	470000	0
bin	480000	0
bin	490000	0
bin	500000	0
bin	510000	0
bin	520000	0
bin	530000	0
bin	540000	1
bin	550000	3
bin	560000	0
bin	570000	0
bin	580000	0
bin	590000	0
bin	600000	2
bin	610000	2
bin	620000	0
bin	630000	2
bin	640000	0
statistic UAVNetwork_Multi.hostA[4].wlan[0].radio packetErrorRate:histogram
field count 5331
field mean 0.029626033383242
field stddev 0.1595635346403
field min 0
field max 1
field sum 157.93638396607
field sqrsum 140.38360864201
attr source packetErrorRate(packetSentToUpper)
attr title "Packet error rate, histogram"
bin	-inf	0
bin	0	5095
bin	0.02	13
bin	0.04	12
bin	0.06	6
bin	0.08	2
bin	0.1	4
bin	0.12	0
bin	0.14	3
bin	0.16	1
bin	0.18	5
bin	0.2	8
bin	0.22	7
bin	0.24	3
bin	0.26	1
bin	0.28	0
bin	0.3	2
bin	0.32	5
bin	0.34	2
bin	0.36	3
bin	0.38	1
bin	0.4	1
bin	0.42	1
bin	0.44	3
bin	0.46	3
bin	0.48	4
bin	0.5	0
bin	0.52	0
bin	0.54	0
bin	0.56	0
bin	0.58	0
bin	0.6	1
bin	0.62	0
bin	0.64	1
bin	0.66	1
bin	0.68	4
bin	0.7	3
bin	0.72	2
bin	0.74	1
bin	0.76	2
bin	0.78	0
bin	0.8	2
bin	0.82	1
bin	0.84	0
bin	0.86	0
bin	0.88	2
bin	0.9	1
bin	0.92	6
bin	0.94	4
bin	0.96	9
bin	0.98	55
bin	1	51
bin	1.02	0
bin	1.04	0
bin	1.06	0
bin	1.08	0
bin	1.1	0
bin	1.12	0
bin	1.14	0
bin	1.16	0
bin	1.18	0
bin	1.2	0
bin	1.22	0
bin	1.24	0
bin	1.26	0
statistic UAVNetwork_Multi.hostA[4].wlan[0].radio bitErrorRate:histogram
field count 0
field mean nan
field stddev nan
field min nan
field max nan
field sum 0
field sqrsum 0
attr source bitErrorRate(packetSentToUpper)
attr title "Bit error rate, histogram"
bin	-inf	0
bin	0	0
bin	1	0
statistic UAVNetwork_Multi.hostA[4].wlan[0].radio symbolErrorRate:histogram
field count 0
field mean nan
field stddev nan
field min nan
field max nan
field sum 0
field sqrsum 0
attr source symbolErrorRate(packetSentToUpper)
attr title "Symbol error rate, histogram"
bin	-inf	0
bin	0	0
bin	1	0
scalar UAVNetwork_Multi.hostA[4].wlan[0].radio transmissionState:count 712
attr interpolationmode sample-hold
attr source transmissionStateChanged
attr title "Radio transmission state, count"
scalar UAVNetwork_Multi.hostA[4].wlan[0].radio receptionState:count 11296
attr interpolationmode sample-hold
attr source receptionStateChanged
attr title "Radio reception state, count"
scalar UAVNetwork_Multi.hostA[4].wlan[0].radio radioMode:count 359
attr interpolationmode sample-hold
attr source radioModeChanged
attr title "Radio mode, count"
statistic UAVNetwork_Multi.hostA[4].wlan[0].radio radioChannel:histogram
field count 1
field mean 0
field stddev nan
field min 0
field max 0
field sum 0
field sqrsum 0
attr interpolationmode sample-hold
attr source radioChannelChanged
attr title "Radio channel, histogram"
bin	-inf	0
bin	-0.5	0
bin	-0.48	0
bin	-0.46	0
bin	-0.44	0
bin	-0.42	0
bin	-0.4	0
bin	-0.38	0
bin	-0.36	0
bin	-0.34	0
bin	-0.32	0
bin	-0.3	0
bin	-0.28	0
bin	-0.26	0
bin	-0.24	0
bin	-0.22	0
bin	-0.2	0
bin	-0.18	0
bin	-0.16	0
bin	-0.14	0
bin	-0.12	0
bin	-0.1	0
bin	-0.08	0
bin	-0.06	0
bin	-0.04	0
bin	-0.02	0
bin	0	1
bin	0.02	0
bin	0.04	0
bin	0.06	0
bin	0.08	0
bin	0.1	0
bin	0.12	0
bin	0.14	0
bin	0.16	0
bin	0.18	0
bin	0.2	0
bin	0.22	0
bin	0.24	0
bin	0.26	0
bin	0.28	0
bin	0.3	0
bin	0.32	0
bin	0.34	0
bin	0.36	0
bin	0.38	0
bin	0.4	0
bin	0.42	0
bin	0.44	0
bin	0.46	0
bin	0.48	0
bin	0.5	0
scalar UAVNetwork_Multi.hostA[4].ipv4.ip packetDropAddressResolutionFailed:count 0
attr interpolationmode none
attr source packetDropReasonIsAddressResolutionFailed(packetDropped)
attr title "packet drop: address resolution failed, count"
scalar UAVNetwork_Multi.hostA[4].ipv4.ip packetDropAddressResolutionFailed:sum(packetBytes) 0
attr interpolationmode none
attr source packetDropReasonIsAddressResolutionFailed(packetDropped)
attr title "packet drop: address resolution failed, sum(packetBytes)"
scalar UAVNetwork_Multi.hostA[4].ipv4.ip packetDropHopLimitReached:count 0
attr interpolationmode none
attr source packetDropReasonIsHopLimitReached(packetDropped)
attr title "packet drop: hop limit reached, count"
scalar UAVNetwork_Multi.hostA[4].ipv4.ip packetDropHopLimitReached:sum(packetBytes) 0
attr interpolationmode none
attr source packetDropReasonIsHopLimitReached(packetDropped)
attr title "packet drop: hop limit reached, sum(packetBytes)"
scalar UAVNetwork_Multi.hostA[4].ipv4.ip packetDropForwardingDisabled:count 0
attr interpolationmode none
attr source packetDropReasonIsForwardingDisabled(packetDropped)
attr title "packet drop: forwarding disabled, count"
scalar UAVNetwork_Multi.hostA[4].ipv4.ip packetDropForwardingDisabled:sum(packetBytes) 0
attr interpolationmode none
attr source packetDropReasonIsForwardingDisabled(packetDropped)
attr title "packet drop: forwarding disabled, sum(packetBytes)"
scalar UAVNetwork_Multi.hostA[4].ipv4.ip packetDropNoInterfaceFound:count 0
attr interpolationmode none
attr source packetDropReasonIsNoInterfaceFound(packetDropped)
attr title "packet drop: no interface found, count"
scalar UAVNetwork_Multi.hostA[4].ipv4.ip packetDropNoInterfaceFound:sum(packetBytes) 0
attr interpolationmode none
attr source packetDropReasonIsNoInterfaceFound(packetDropped)
attr title "packet drop: no interface found, sum(packetBytes)"
scalar UAVNetwork_Multi.hostA[4].ipv4.ip packetDropNoRouteFound:count 0
attr interpolationmode none
attr source packetDropReasonIsNoRouteFound(packetDropped)
attr title "packet drop: no route found, count"
scalar UAVNetwork_Multi.hostA[4].ipv4.ip packetDropNoRouteFound:sum(packetBytes) 0
attr interpolationmode none
attr source packetDropReasonIsNoRouteFound(packetDropped)
attr title "packet drop: no route found, sum(packetBytes)"
scalar UAVNetwork_Multi.hostA[4].ipv4.ip packetDropUndefined:count 0
attr interpolationmode none
attr source packetDropReasonIsUndefined(packetDropped)
attr title "packet drop: undefined, count"
scalar UAVNetwork_Multi.hostA[4].ipv4.ip packetDropUndefined:sum(packetBytes) 0
attr interpolationmode none
attr source packetDropReasonIsUndefined(packetDropped)
attr title "packet drop: undefined, sum(packetBytes)"
scalar UAVNetwork_Multi.hostA[4].udp packetReceived:count 0
attr interpolationmode none
attr source packetReceived
attr title "packets received, count"
scalar UAVNetwork_Multi.hostA[4].udp packetReceived:sum(packetBytes) 0
attr interpolationmode none
attr source packetReceived
attr title "packets received, sum(packetBytes)"
scalar UAVNetwork_Multi.hostA[4].udp packetSent:count 0
attr interpolationmode none
attr source packetSent
attr title "packets sent, count"
scalar UAVNetwork_Multi.hostA[4].udp packetSent:sum(packetBytes) 0
attr interpolationmode none
attr source packetSent
attr title "packets sent, sum(packetBytes)"
scalar UAVNetwork_Multi.hostA[4].udp passedUpPk:count 0
attr interpolationmode none
attr source packetSentToUpper
attr title "packets passed up, count"
scalar UAVNetwork_Multi.hostA[4].udp droppedPkWrongPort:count 0
attr interpolationmode none
attr source packetDropReasonIsNoPortFound(packetDropped)
attr title "packets dropped (wrong port), count"
scalar UAVNetwork_Multi.hostA[4].udp droppedPkBadChecksum:count 0
attr interpolationmode none
attr source packetDropReasonIsIncorrectlyReceived(packetDropped)
attr title "packets dropped (checksum error), count"
scalar UAVNetwork_Multi.hostA[4].app[0] "Pings sent" 54
scalar UAVNetwork_Multi.hostA[4].app[0] "ping loss rate (%)" 3.7037037037037
scalar UAVNetwork_Multi.hostA[4].app[0] "ping out-of-order rate (%)" 0
scalar UAVNetwork_Multi.hostA[4].app[0] pingRxSeq:count 52
attr interpolationmode none
attr title "ping rx seq, count"
scalar UAVNetwork_Multi.hostA[4].app[0] pingTxSeq:count 54
attr interpolationmode none
attr title "ping tx seq, count"
scalar UAVNetwork_Multi.hostA[4].app[0] numOutOfOrderArrivals:last nan
attr interpolationmode none
attr title "ping out-of-order arrivals, last"
scalar UAVNetwork_Multi.hostA[4].app[0] numLost:last 2
attr interpolationmode none
attr title "pings lost, last"
statistic UAVNetwork_Multi.hostA[4].app[0] rtt:histogram
field count 52
field mean 0.0029933965350577
field stddev 0.00019351479520915
field min 0.002669093263
field max 0.003416093127
field sum 0.155656619823
field sqrsum 0.00046785183321117
attr interpolationmode none
attr title "ping round-trip time, histogram"
attr unit s
bin	-inf	0
bin	0.00248	0
bin	0.0025	0
bin	0.00252	0
bin	0.00254	0
bin	0.00256	0
bin	0.00258	0
bin	0.0026	0
bin	0.00262	0
bin	0.00264	0
bin	0.00266	2
bin	0.00268	0
bin	0.0027	0
bin	0.00272	5
bin	0.00274	3
bin	0.00276	1
bin	0.00278	1
bin	0.0028	0
bin	0.00282	0
bin	0.00284	0
bin	0.00286	4
bin	0.00288	1
bin	0.0029	4
bin	0.00292	1
bin	0.00294	3
bin	0.00296	0
bin	0.00298	1
bin	0.003	2
bin	0.00302	3
bin	0.00304	2
bin	0.00306	1
bin	0.00308	0
bin	0.0031	0
bin	0.00312	2
bin	0.00314	2
bin	0.00316	3
bin	0.00318	3
bin	0.0032	0
bin	0.00322	2
[...]
attr interpolationmode none
attr source packetDropReasonIsHopLimitReached(packetDropped)
attr title "packet drop: hop limit reached, sum(packetBytes)"
scalar UAVNetwork_Multi.hostRouters[1].ipv4.ip packetDropForwardingDisabled:count 0
attr interpolationmode none
attr source packetDropReasonIsForwardingDisabled(packetDropped)
attr title "packet drop: forwarding disabled, count"
scalar UAVNetwork_Multi.hostRouters[1].ipv4.ip packetDropForwardingDisabled:sum(packetBytes) 0
attr interpolationmode none
attr source packetDropReasonIsForwardingDisabled(packetDropped)
attr title "packet drop: forwarding disabled, sum(packetBytes)"
scalar UAVNetwork_Multi.hostRouters[1].ipv4.ip packetDropNoInterfaceFound:count 0
attr interpolationmode none
attr source packetDropReasonIsNoInterfaceFound(packetDropped)
attr title "packet drop: no interface found, count"
scalar UAVNetwork_Multi.hostRouters[1].ipv4.ip packetDropNoInterfaceFound:sum(packetBytes) 0
attr interpolationmode none
attr source packetDropReasonIsNoInterfaceFound(packetDropped)
attr title "packet drop: no interface found, sum(packetBytes)"
scalar UAVNetwork_Multi.hostRouters[1].ipv4.ip packetDropNoRouteFound:count 0
attr interpolationmode none
attr source packetDropReasonIsNoRouteFound(packetDropped)
attr title "packet drop: no route found, count"
scalar UAVNetwork_Multi.hostRouters[1].ipv4.ip packetDropNoRouteFound:sum(packetBytes) 0
attr interpolationmode none
attr source packetDropReasonIsNoRouteFound(packetDropped)
attr title "packet drop: no route found, sum(packetBytes)"
scalar UAVNetwork_Multi.hostRouters[1].ipv4.ip packetDropUndefined:count 0
attr interpolationmode none
attr source packetDropReasonIsUndefined(packetDropped)
attr title "packet drop: undefined, count"
scalar UAVNetwork_Multi.hostRouters[1].ipv4.ip packetDropUndefined:sum(packetBytes) 0
attr interpolationmode none
attr source packetDropReasonIsUndefined(packetDropped)
attr title "packet drop: undefined, sum(packetBytes)"
scalar UAVNetwork_Multi.hostRouters[1].udp packetReceived:count 0
attr interpolationmode none
attr source packetReceived
attr title "packets received, count"
scalar UAVNetwork_Multi.hostRouters[1].udp packetReceived:sum(packetBytes) 0
attr interpolationmode none
attr source packetReceived
attr title "packets received, sum(packetBytes)"
scalar UAVNetwork_Multi.hostRouters[1].udp packetSent:count 0
attr interpolationmode none
attr source packetSent
attr title "packets sent, count"
scalar UAVNetwork_Multi.hostRouters[1].udp packetSent:sum(packetBytes) 0
attr interpolationmode none
attr source packetSent
attr title "packets sent, sum(packetBytes)"
scalar UAVNetwork_Multi.hostRouters[1].udp passedUpPk:count 0
attr interpolationmode none
attr source packetSentToUpper
attr title "packets passed up, count"
scalar UAVNetwork_Multi.hostRouters[1].udp droppedPkWrongPort:count 0
attr interpolationmode none
attr source packetDropReasonIsNoPortFound(packetDropped)
attr title "packets dropped (wrong port), count"
scalar UAVNetwork_Multi.hostRouters[1].udp droppedPkBadChecksum:count 0
attr interpolationmode none
attr source packetDropReasonIsIncorrectlyReceived(packetDropped)
attr title "packets dropped (checksum error), count"
scalar UAVNetwork_Multi.hostRouters[1].app[0] "Pings sent" 47
scalar UAVNetwork_Multi.hostRouters[1].app[0] "ping loss rate (%)" 23.404255319149
scalar UAVNetwork_Multi.hostRouters[1].app[0] "ping out-of-order rate (%)" 0
scalar UAVNetwork_Multi.hostRouters[1].app[0] pingRxSeq:count 36
attr interpolationmode none
attr title "ping rx seq, count"
scalar UAVNetwork_Multi.hostRouters[1].app[0] pingTxSeq:count 47
attr interpolationmode none
attr title "ping tx seq, count"
scalar UAVNetwork_Multi.hostRouters[1].app[0] numOutOfOrderArrivals:last nan
attr interpolationmode none
attr title "ping out-of-order arrivals, last"
scalar UAVNetwork_Multi.hostRouters[1].app[0] numLost:last 11
attr interpolationmode none
attr title "pings lost, last"
statistic UAVNetwork_Multi.hostRouters[1].app[0] rtt:histogram
field count 36
field mean 0.0038492846096944
field stddev 0.0015566312330182
field min 0.00269104205
field max 0.006885019187
field sum 0.138574245949
field sqrsum 0.00061822024007777
attr interpolationmode none
attr title "ping round-trip time, histogram"
attr unit s
bin	-inf	0
bin	0.0016	0
bin	0.0017	0
bin	0.0018	0
bin	0.0019	0
bin	0.002	0
bin	0.0021	0
bin	0.0022	0
bin	0.0023	0
bin	0.0024	0
bin	0.0025	0
bin	0.0026	1
bin	0.0027	3
bin	0.0028	6
bin	0.0029	7
bin	0.003	4
bin	0.0031	3
bin	0.0032	3
bin	0.0033	0
bin	0.0034	0
bin	0.0035	0
bin	0.0036	0
bin	0.0037	0
bin	0.0038	0
bin	0.0039	0
bin	0.004	0
bin	0.0041	0
bin	0.0042	0
bin	0.0043	0
bin	0.0044	0
bin	0.0045	0
bin	0.0046	0
bin	0.0047	0
bin	0.0048	0
bin	0.0049	0
bin	0.005	0
bin	0.0051	0
bin	0.0052	0
bin	0.0053	0
bin	0.0054	0
bin	0.0055	0
bin	0.0056	0
bin	0.0057	0
bin	0.0058	0
bin	0.0059	0
bin	0.006	0
bin	0.0061	0
bin	0.0062	1
bin	0.0063	2
bin	0.0064	3
bin	0.0065	1
bin	0.0066	1
bin	0.0067	0
bin	0.0068	1
bin	0.0069	0
bin	0.007	0
bin	0.0071	0
bin	0.0072	0
bin	0.0073	0
bin	0.0074	0
bin	0.0075	0
bin	0.0076	0
bin	0.0077	0
bin	0.0078	0
bin	0.0079	0
bin	0.008	0
scalar UAVNetwork_Multi.hostRouters[2].lo[0].lo rcvdPkFromHl:count 0
attr interpolationmode none
attr source packetReceivedFromUpper
attr title "packets received from higher layer, count"
scalar UAVNetwork_Multi.hostRouters[2].lo[0].lo rcvdPkFromHl:sum(packetBytes) 0
attr interpolationmode none
attr source packetReceivedFromUpper
attr title "packets received from higher layer, sum(packetBytes)"
scalar UAVNetwork_Multi.hostRouters[2].lo[0].lo passedUpPk:count 0
attr interpolationmode none
attr source packetSentToUpper
attr title "packets passed to higher layer, count"
scalar UAVNetwork_Multi.hostRouters[2].lo[0].lo passedUpPk:sum(packetBytes) 0
attr interpolationmode none
attr source packetSentToUpper
attr title "packets passed to higher layer, sum(packetBytes)"
scalar UAVNetwork_Multi.hostRouters[2].wlan[0].mac rcvdPkFromLl:count 3797
attr interpolationmode none
attr source packetReceivedFromLower
attr title "packets received from lower layer, count"
scalar UAVNetwork_Multi.hostRouters[2].wlan[0].mac rcvdPkFromLl:sum(packetBytes) 268082
attr interpolationmode none
attr source packetReceivedFromLower
attr title "packets received from lower layer, sum(packetBytes)"
scalar UAVNetwork_Multi.hostRouters[2].wlan[0].mac sentDownPk:count 1234
attr interpolationmode none
attr source packetSentToLower
attr title "packets sent to lower layer, count"
scalar UAVNetwork_Multi.hostRouters[2].wlan[0].mac sentDownPk:sum(packetBytes) 85562
attr interpolationmode none
attr source packetSentToLower
attr title "packets sent to lower layer, sum(packetBytes)"
scalar UAVNetwork_Multi.hostRouters[2].wlan[0].mac rcvdPkFromHl:count 621
attr interpolationmode none
attr source packetReceivedFromUpper
attr title "packets received from higher layer, count"
scalar UAVNetwork_Multi.hostRouters[2].wlan[0].mac rcvdPkFromHl:sum(packetBytes) 55424
attr interpolationmode none
attr source packetReceivedFromUpper
attr title "packets received from higher layer, sum(packetBytes)"
scalar UAVNetwork_Multi.hostRouters[2].wlan[0].mac passedUpPk:count 883
attr interpolationmode none
attr source packetSentToUpper
attr title "packets passed to higher layer, count"
scalar UAVNetwork_Multi.hostRouters[2].wlan[0].mac passedUpPk:sum(packetBytes) 70524
attr interpolationmode none
attr source packetSentToUpper
attr title "packets passed to higher layer, sum(packetBytes)"
scalar UAVNetwork_Multi.hostRouters[2].wlan[0].mac packetDropIncorrectlyReceived:count 142
attr interpolationmode none
attr source packetDropReasonIsIncorrectlyReceived(packetDropped)
attr title "packet drop: incorrectly received, count"
scalar UAVNetwork_Multi.hostRouters[2].wlan[0].mac packetDropIncorrectlyReceived:sum(packetBytes) 13154
attr interpolationmode none
attr source packetDropReasonIsIncorrectlyReceived(packetDropped)
attr title "packet drop: incorrectly received, sum(packetBytes)"
scalar UAVNetwork_Multi.hostRouters[2].wlan[0].mac packetDropNotAddressedToUs:count 2186
attr interpolationmode none
attr source packetDropReasonIsNotAddressedToUs(packetDropped)
attr title "packet drop: not addressed to us, count"
scalar UAVNetwork_Multi.hostRouters[2].wlan[0].mac packetDropNotAddressedToUs:sum(packetBytes) 151476
attr interpolationmode none
attr source packetDropReasonIsNotAddressedToUs(packetDropped)
attr title "packet drop: not addressed to us, sum(packetBytes)"
scalar UAVNetwork_Multi.hostRouters[2].wlan[0].mac packetDropQueueOverflow:count 0
attr interpolationmode none
attr source packetDropReasonIsQueueOverflow(packetDropped)
attr title "packet drop: queue overflow, count"
scalar UAVNetwork_Multi.hostRouters[2].wlan[0].mac packetDropQueueOverflow:sum(packetBytes) 0
attr interpolationmode none
attr source packetDropReasonIsQueueOverflow(packetDropped)
attr title "packet drop: queue overflow, sum(packetBytes)"
scalar UAVNetwork_Multi.hostRouters[2].wlan[0].mac packetDropRetryLimitReached:count 4
attr interpolationmode none
attr source packetDropReasonIsRetryLimitReached(packetDropped)
attr title "packet drop: retry limit reached, count"
scalar UAVNetwork_Multi.hostRouters[2].wlan[0].mac packetDropRetryLimitReached:sum(packetBytes) 480
attr interpolationmode none
attr source packetDropReasonIsRetryLimitReached(packetDropped)
attr title "packet drop: retry limit reached, sum(packetBytes)"
scalar UAVNetwork_Multi.hostRouters[2].wlan[0].mac linkBroken:count 4
attr interpolationmode none
attr source linkBroken
attr title "link break, count"
statistic UAVNetwork_Multi.hostRouters[2].wlan[0].radio minSnir:histogram
field count 3797
field mean 1333.8325319979
field stddev 4782.5947702231
field min 0.072675937182116
field max 198953.12304971
field sum 5064562.1239959
field sqrsum 93581993267.794
attr source minimumSnir(packetSentToUpper)
attr title "Min SNIR, histogram"
bin	-inf	0
bin	0	3599
bin	3600	91
bin	7200	40
bin	10800	25
bin	14400	5
bin	18000	7
bin	21600	3
bin	25200	11
bin	28800	2
bin	32400	2
bin	36000	0
bin	39600	1
bin	43200	7
bin	46800	2
bin	50400	0
bin	54000	1
bin	57600	0
bin	61200	0
bin	64800	0
bin	68400	0
bin	72000	0
bin	75600	0
bin	79200	0
bin	82800	0
bin	86400	0
bin	90000	0
bin	93600	0
bin	97200	0
bin	100800	0
bin	104400	0
bin	108000	0
bin	111600	0
bin	115200	0
bin	118800	0
bin	122400	0
bin	126000	0
bin	129600	0
bin	133200	0
bin	136800	0
bin	140400	0
bin	144000	0
bin	147600	0
bin	151200	0
bin	154800	0
bin	158400	0
bin	162000	0
bin	165600	0
bin	169200	0
bin	172800	0
bin	176400	0
bin	180000	0
bin	183600	0
bin	187200	0
bin	190800	0
bin	194400	0
bin	198000	1
bin	201600	0
statistic UAVNetwork_Multi.hostRouters[2].wlan[0].radio packetErrorRate:histogram
field count 3797
field mean 0.038892839986955
field stddev 0.18212716284674
field min 0
field max 1
field sum 147.67611343047
field sqrsum 131.65801533285
attr source packetErrorRate(packetSentToUpper)
attr title "Packet error rate, histogram"
bin	-inf	0
bin	0	3577
bin	0.02	16
bin	0.04	7
bin	0.06	5
bin	0.08	6
bin	0.1	5
bin	0.12	4
bin	0.14	4
bin	0.16	5
bin	0.18	1
bin	0.2	1
bin	0.22	0
bin	0.24	0
bin	0.26	3
bin	0.28	2
bin	0.3	1
bin	0.32	2
bin	0.34	3
bin	0.36	0
bin	0.38	0
bin	0.4	2
bin	0.42	1
bin	0.44	5
bin	0.46	2
bin	0.48	3
bin	0.5	2
bin	0.52	0
bin	0.54	1
bin	0.56	1
bin	0.58	2
bin	0.6	4
bin	0.62	1
bin	0.64	1
bin	0.66	0
bin	0.68	3
bin	0.7	0
bin	0.72	2
bin	0.74	0
bin	0.76	0
bin	0.78	2
bin	0.8	0
bin	0.82	1
bin	0.84	2
bin	0.86	2
bin	0.88	3
bin	0.9	2
bin	0.92	2
bin	0.94	3
bin	0.96	7
bin	0.98	66
bin	1	35
bin	1.02	0
bin	1.04	0
bin	1.06	0
bin	1.08	0
bin	1.1	0
bin	1.12	0
bin	1.14	0
bin	1.16	0
bin	1.18	0
bin	1.2	0
bin	1.22	0
bin	1.24	0
bin	1.26	0
statistic UAVNetwork_Multi.hostRouters[2].wlan[0].radio bitErrorRate:histogram
field count 0
field mean nan
field stddev nan
field min nan
field max nan
field sum 0
field sqrsum 0
attr source bitErrorRate(packetSentToUpper)
attr title "Bit error rate, histogram"
bin	-inf	0
bin	0	0
bin	1	0
statistic UAVNetwork_Multi.hostRouters[2].wlan[0].radio symbolErrorRate:histogram
field count 0
field mean nan
field stddev nan
field min nan
field max nan
field sum 0
field sqrsum 0
attr source symbolErrorRate(packetSentToUpper)
attr title "Symbol error rate, histogram"
bin	-inf	0
bin	0	0
bin	1	0
scalar UAVNetwork_Multi.hostRouters[2].wlan[0].radio transmissionState:count 4936
attr interpolationmode sample-hold
attr source transmissionStateChanged
attr title "Radio transmission state, count"
scalar UAVNetwork_Multi.hostRouters[2].wlan[0].radio receptionState:count 10237
attr interpolationmode sample-hold
attr source receptionStateChanged
attr title "Radio reception state, count"
scalar UAVNetwork_Multi.hostRouters[2].wlan[0].radio radioMode:count 2471
attr interpolationmode sample-hold
attr source radioModeChanged
attr title "Radio mode, count"
statistic UAVNetwork_Multi.hostRouters[2].wlan[0].radio radioChannel:histogram
field count 1
field mean 0
field stddev nan
field min 0
field max 0
field sum 0
field sqrsum 0
attr interpolationmode sample-hold
attr source radioChannelChanged
attr title "Radio channel, histogram"
bin	-inf	0
bin	-0.5	0
bin	-0.48	0
bin	-0.46	0
bin	-0.44	0
bin	-0.42	0
bin	-0.4	0
bin	-0.38	0
bin	-0.36	0
bin	-0.34	0
bin	-0.32	0
bin	-0.3	0
bin	-0.28	0
bin	-0.26	0
bin	-0.24	0
bin	-0.22	0
bin	-0.2	0
bin	-0.18	0
bin	-0.16	0
bin	-0.14	0
bin	-0.12	0
bin	-0.1	0
bin	-0.08	0
bin	-0.06	0
bin	-0.04	0
bin	-0.02	0
bin	0	1
bin	0.02	0
bin	0.04	0
bin	0.06	0
bin	0.08	0
bin	0.1	0
bin	0.12	0
bin	0.14	0
bin	0.16	0
bin	0.18	0
bin	0.2	0
bin	0.22	0
bin	0.24	0
bin	0.26	0
bin	0.28	0
bin	0.3	0
bin	0.32	0
bin	0.34	0
bin	0.36	0
bin	0.38	0
bin	0.4	0
bin	0.42	0
bin	0.44	0
bin	0.46	0
bin	0.48	0
bin	0.5	0
scalar UAVNetwork_Multi.hostRouters[2].ipv4.ip packetDropAddressResolutionFailed:count 0
attr interpolationmode none
attr source packetDropReasonIsAddressResolutionFailed(packetDropped)
attr title "packet drop: address resolution failed, count"
scalar UAVNetwork_Multi.hostRouters[2].ipv4.ip packetDropAddressResolutionFailed:sum(packetBytes) 0
attr interpolationmode none
attr source packetDropReasonIsAddressResolutionFailed(packetDropped)
attr title "packet drop: address resolution failed, sum(packetBytes)"
scalar UAVNetwork_Multi.hostRouters[2].ipv4.ip packetDropHopLimitReached:count 0
attr interpolationmode none
attr source packetDropReasonIsHopLimitReached(packetDropped)
attr title "packet drop: hop limit reached, count"
scalar UAVNetwork_Multi.hostRouters[2].ipv4.ip packetDropHopLimitReached:sum(packetBytes) 0
attr interpolationmode none
attr source packetDropReasonIsHopLimitReached(packetDropped)
attr title "packet drop: hop limit reached, sum(packetBytes)"
scalar UAVNetwork_Multi.hostRouters[2].ipv4.ip packetDropForwardingDisabled:count 0
attr interpolationmode none
attr source packetDropReasonIsForwardingDisabled(packetDropped)
attr title "packet drop: forwarding disabled, count"
scalar UAVNetwork_Multi.hostRouters[2].ipv4.ip packetDropForwardingDisabled:sum(packetBytes) 0
attr interpolationmode none
attr source packetDropReasonIsForwardingDisabled(packetDropped)
attr title "packet drop: forwarding disabled, sum(packetBytes)"
scalar UAVNetwork_Multi.hostRouters[2].ipv4.ip packetDropNoInterfaceFound:count 0
attr interpolationmode none
attr source packetDropReasonIsNoInterfaceFound(packetDropped)
attr title "packet drop: no interface found, count"
scalar UAVNetwork_Multi.hostRouters[2].ipv4.ip packetDropNoInterfaceFound:sum(packetBytes) 0
attr interpolationmode none
attr source packetDropReasonIsNoInterfaceFound(packetDropped)
attr title "packet drop: no interface found, sum(packetBytes)"
scalar UAVNetwork_Multi.hostRouters[2].ipv4.ip packetDropNoRouteFound:count 0
attr interpolationmode none
attr source packetDropReasonIsNoRouteFound(packetDropped)
attr title "packet drop: no route found, count"
scalar UAVNetwork_Multi.hostRouters[2].ipv4.ip packetDropNoRouteFound:sum(packetBytes) 0
attr interpolationmode none
attr source packetDropReasonIsNoRouteFound(packetDropped)
attr title "packet drop: no route found, sum(packetBytes)"
scalar UAVNetwork_Multi.hostRouters[2].ipv4.ip packetDropUndefined:count 0
attr interpolationmode none
attr source packetDropReasonIsUndefined(packetDropped)
attr title "packet drop: undefined, count"
scalar UAVNetwork_Multi.hostRouters[2].ipv4.ip packetDropUndefined:sum(packetBytes) 0
attr interpolationmode none
attr source packetDropReasonIsUndefined(packetDropped)
attr title "packet drop: undefined, sum(packetBytes)"
scalar UAVNetwork_Multi.hostRouters[2].udp packetReceived:count 0
attr interpolationmode none
attr source packetReceived
attr title "packets received, count"
scalar UAVNetwork_Multi.hostRouters[2].udp packetReceived:sum(packetBytes) 0
attr interpolationmode none
attr source packetReceived
attr title "packets received, sum(packetBytes)"
scalar UAVNetwork_Multi.hostRouters[2].udp packetSent:count 0
attr interpolationmode none
attr source packetSent
attr title "packets sent, count"
scalar UAVNetwork_Multi.hostRouters[2].udp packetSent:sum(packetBytes) 0
attr interpolationmode none
attr source packetSent
attr title "packets sent, sum(packetBytes)"
scalar UAVNetwork_Multi.hostRouters[2].udp passedUpPk:count 0
attr interpolationmode none
attr source packetSentToUpper
attr title "packets passed up, count"
scalar UAVNetwork_Multi.hostRouters[2].udp droppedPkWrongPort:count 0
attr interpolationmode none
attr source packetDropReasonIsNoPortFound(packetDropped)
attr title "packets dropped (wrong port), count"
scalar UAVNetwork_Multi.hostRouters[2].udp droppedPkBadChecksum:count 0
attr interpolationmode none
attr source packetDropReasonIsIncorrectlyReceived(packetDropped)
attr title "packets dropped (checksum error), count"
scalar UAVNetwork_Multi.hostRouters[2].app[0] "Pings sent" 50
scalar UAVNetwork_Multi.hostRouters[2].app[0] "ping loss rate (%)" 32
scalar UAVNetwork_Multi.hostRouters[2].app[0] "ping out-of-order rate (%)" 0
scalar UAVNetwork_Multi.hostRouters[2].app[0] pingRxSeq:count 34
attr interpolationmode none
attr title "ping rx seq, count"
scalar UAVNetwork_Multi.hostRouters[2].app[0] pingTxSeq:count 50
attr interpolationmode none
attr title "ping tx seq, count"
scalar UAVNetwork_Multi.hostRouters[2].app[0] numOutOfOrderArrivals:last nan
attr interpolationmode none
attr title "ping out-of-order arrivals, last"
scalar UAVNetwork_Multi.hostRouters[2].app[0] numLost:last 16
attr interpolationmode none
attr title "pings lost, last"
statistic UAVNetwork_Multi.hostRouters[2].app[0] rtt:histogram
field count 34
field mean 0.053230171415088
field stddev 0.19533700549617
field min 0.002670195029
field max 0.836986416171
field sum 1.809825828113
field sqrsum 1.3555033476968
attr interpolationmode none
attr title "ping round-trip time, histogram"
attr unit s
bin	-inf	0
bin	0	31
bin	0.02	1
bin	0.04	0
bin	0.06	0
bin	0.08	0
bin	0.1	0
bin	0.12	0
bin	0.14	0
bin	0.16	0
bin	0.18	0
bin	0.2	0
bin	0.22	0
bin	0.24	0
bin	0.26	0
bin	0.28	0
bin	0.3	0
bin	0.32	0
bin	0.34	0
bin	0.36	0
bin	0.38	0
bin	0.4	0
bin	0.42	0
bin	0.44	0
bin	0.46	0
bin	0.48	0
bin	0.5	0
bin	0.52	0
bin	0.54	0
bin	0.56	0
bin	0.58	0
bin	0.6	0
bin	0.62	0
bin	0.64	0
bin	0.66	0
bin	0.68	0
bin	0.7	0
bin	0.72	0
bin	0.74	0
bin	0.76	0
bin	0.78	0
bin	0.8	1
bin	0.82	1
bin	0.84	0
bin	0.86	0
bin	0.88	0
bin	0.9	0
bin	0.92	0
bin	0.94	0
bin	0.96	0
bin	0.98	0
bin	1	0
bin	1.02	0
bin	1.04	0
bin	1.06	0

