file 45828 1608347873                                           
version 2
run General-2-20201219-11:16:04-1556
attr configname General
attr datetime 20201219-11:16:04
attr experiment General
attr inifile multi_test_real.ini
attr iterationvars "$pathlosstype=\"RicianFading\""
attr iterationvarsf pathlosstype=RicianFading-
attr measurement "$pathlosstype=\"RicianFading\""
attr network myuav.UAVNetwork_Multi
attr processid 1556
attr repetition 0
attr replication #0
attr resultdir results
attr runnumber 2
attr seedset 2
itervar pathlosstype "\"RicianFading\""
param *.configurator.addStaticRoutes false
param **.arp.typename "\"GlobalArp\""
param **.hostA[*].forwarding false
param **.hostB[*].forwarding false
param **.hostC[*].forwarding false
param **.hostA[*].multicastForwarding false
param **.hostB[*].multicastForwarding false
param **.hostC[*].multicastForwarding false
param **.hostRouters[*].forwarding true
param **.hostRouters[*].multicastForwarding true
param *.numHostsA 30
param *.numHostsB 30
param *.numHostsC 30
param *.configurator.config "xmldoc(\"multi_test.xml\")"
param *.configurator.dumpAddresses true
param *.configurator.dumpTopology true
param *.configurator.dumpLinks true
param *.configurator.dumpRoutes true
param *.configurator.dumpConfig "\"multi_test_dump.xml\""
param *.visualizer.osgVisualizer.typename "\"IntegratedOsgVisualizer\""
param *.visualizer.osgVisualizer.sceneVisualizer.clearColor "\"skyblue\""
param *.visualizer.osgVisualizer.sceneVisualizer.sceneImage "\"showcases/desert\""
param *.visualizer.osgVisualizer.sceneVisualizer.sceneImageSize 2000m
param *.visualizer.osgVisualizer.sceneVisualizer.axisLength 500m
param *.visualizer.osgVisualizer.sceneVisualizer.sceneMinX 0m
param *.visualizer.osgVisualizer.sceneVisualizer.sceneMinY 0m
param *.visualizer.osgVisualizer.sceneVisualizer.sceneMinZ 0m
param *.visualizer.osgVisualizer.sceneVisualizer.sceneMaxX 2000m
param *.visualizer.osgVisualizer.sceneVisualizer.sceneMaxY 2000m
param *.visualizer.osgVisualizer.sceneVisualizer.sceneMaxZ 1000m
param *.visualizer.*.dataLinkVisualizer.displayLinks true
param *.visualizer.*.dataLinkVisualizer.packetFilter "\"ping*\""
param *.visualizer.*.dataLinkVisualizer.nodeFilter "\"*\""
param *.visualizer.*.dataLinkVisualizer.lineWidth 5
param *.visualizer.*.dataLinkVisualizer.lineColor "\"red\""
param *.visualizer.*.networkRouteVisualizer.displayRoutes true
param *.visualizer.*.networkRouteVisualizer.lineShift 0
param *.visualizer.*.networkRouteVisualizer.lineWidth 10
param *.visualizer.*.networkRouteVisualizer.packetFilter "\"ping*\""
param *.visualizer.*.mobilityVisualizer.displayMovementTrails true
param *.visualizer.*.mobilityVisualizer.animationSpeed 1
param *.host*.wlan[0].typename "\"WirelessInterface\""
param *.host*.wlan[0].mac.typename "\"CsmaCaMac\""
param *.host*.wlan[0].mac.ackTimeout 300us
param **.wlan[*].queue.typename "\"DropTailQueue\""
param *.hostRouters[*].wlan[0].mac.maxQueueSize 20000
param *.host*.wlan[0].mac.maxQueueSize 10000
param *.radioMedium.typename "\"ApskScalarRadioMedium\""
param *.radioMedium.backgroundNoise.power -90dBm
param *.radioMedium.mediumLimitCache.carrierFrequency 2GHz
param *.host*.wlan[0].radio.typename "\"ApskScalarRadio\""
param *.host*.wlan[0].radio.carrierFrequency 2GHz
param **.ignorePartialInterference true
param *.hostRouters[*].wlan[0].radio.bandwidth 10MHz
param *.host*.wlan[0].radio.bandwidth 10MHz
param *.host*.wlan[0].radio.transmitter.preambleDuration 10us
param *.host*.wlan[0].radio.transmitter.headerLength 8b
param *.host*.wlan[0].radio.receiver.sensitivity -85dBm
param *.host*.wlan[0].radio.receiver.energyDetection -85dBm
param *.host*.wlan[0].radio.receiver.snirThreshold 4dB
param **.host*.**.bitrate 1Mbps
param **.hostRouters[*].wlan[*].radio.transmitter.power 7mW
param **.host*.wlan[*].radio.transmitter.power 2mW
param *.radioMedium.pathLoss.typename "\"RicianFading\""
param *.physicalEnvironment.coordinateSystemModule "\"coordinateSystem\""
param *.*.mobility.coordinateSystemModule "\"coordinateSystem\""
param *.physicalEnvironment.config "xmldoc(\"obstacles.xml\")"
param *.radioMedium.obstacleLoss.typename "\"DielectricObstacleLoss\""
param *.host*.numApps 1
param **.hostA[*].app[*].count 1
param **.hostA[*].app[*].continuous true
param **.hostB[*].app[*].count 1
param **.hostB[*].app[*].continuous true
param **.hostC[*].app[*].count 1
param **.hostC[*].app[*].continuous true
param **.hostRouters[*].app[*].count 1
param **.hostRouters[*].app[*].continuous true
param **.host*.app[*].typename "\"PingApp\""
param **.hostRouters[0].app[*].destAddr "\"hostRouters[1] hostRouters[2]\""
param **.hostRouters[1].app[*].destAddr "\"hostRouters[0] hostRouters[2]\""
param **.hostRouters[2].app[*].destAddr "\"hostRouters[0] hostRouters[1]\""
param **.hostRouters[*].app[*].startTime uniform(10s,15s)
param **.hostRouters[*].app[*].printPing true
param **.hostA[*].app[*].destAddr "\"hostRouters[0] hostA[1] hostA[2] \""
param **.hostA[*].app[*].startTime uniform(5s,8s)
param **.hostA[*].app[*].printPing true
param **.hostB[*].app[*].destAddr "\"hostB[0] hostB[1] hostRouters[1]\""
param **.hostB[*].app[*].startTime uniform(5s,8s)
param **.hostB[*].app[*].printPing true
param **.hostC[*].app[*].destAddr "\"hostC[0] hostC[2] hostRouters[2]\""
param **.hostC[*].app[*].startTime uniform(5s,8s)
param **.hostC[*].app[*].printPing true
param **.host*.mobility.initFromDisplayString false
param **.host*.mobility.typename "\"MassMobility\""
param **.hostRouters[*].osgModel "\"3d/drone.ive.80.scale.0,0,90.rot\""
param **.host*.osgModel "\"3d/drone.ive.10.scale.0,0,90.rot\""
param **.host*.mobility.initialMovementHeading "uniform(0deg, 360deg)"
param **.host*.mobility.initialMovementElevation "uniform(-90deg, 90deg)"
param **.host*.mobility.rotationAxisAngle uniform(-10deg,10deg)
param **.host*.mobility.faceForward false
param **.hostRouters[*].mobility.speed truncnormal(50mps,8mps)
param **.hostRouters[*].mobility.changeInterval "truncnormal(2s, 1s)"
param **.hostRouters[*].mobility.angleDelta "normal(-20deg, 20deg)"
param **.host*.mobility.speed "truncnormal(20mps, 4mps)"
param **.host*.mobility.changeInterval "truncnormal(3s, 1s)"
param **.host*.mobility.angleDelta "normal(-10deg, 10deg)"
param **.host*.mobility.initialZ 200m
param **.host*.mobility.constraintAreaMinZ 100m
param **.host*.mobility.constraintAreaMaxZ 300m
param **.hostRouters[0].mobility.initialX 700m
param **.hostRouters[0].mobility.initialY 700m
param **.hostRouters[0].mobility.constraintAreaMinX 575m
param **.hostRouters[0].mobility.constraintAreaMaxX 825m
param **.hostRouters[0].mobility.constraintAreaMinY 575m
param **.hostRouters[0].mobility.constraintAreaMaxY 825m
param **.hostA[*].mobility.constraintAreaMinX 600m
param **.hostA[*].mobility.constraintAreaMaxX 800m
param **.hostA[*].mobility.constraintAreaMinY 600m
param **.hostA[*].mobility.constraintAreaMaxY 800m
param **.hostRouters[1].mobility.initialX 950m
param **.hostRouters[1].mobility.initialY 450m
param **.hostRouters[1].mobility.constraintAreaMinX 825m
param **.hostRouters[1].mobility.constraintAreaMaxX 1075m
param **.hostRouters[1].mobility.constraintAreaMinY 325m
param **.hostRouters[1].mobility.constraintAreaMaxY 575m
param **.hostB[*].mobility.constraintAreaMinX 850m
param **.hostB[*].mobility.constraintAreaMaxX 1050m
param **.hostB[*].mobility.constraintAreaMinY 350m
param **.hostB[*].mobility.constraintAreaMaxY 550m
param **.hostRouters[2].mobility.initialX 950m
param **.hostRouters[2].mobility.initialY 950m
param **.hostRouters[2].mobility.constraintAreaMinX 825m
param **.hostRouters[2].mobility.constraintAreaMaxX 1075m
param **.hostRouters[2].mobility.constraintAreaMinY 825m
param **.hostRouters[2].mobility.constraintAreaMaxY 1075m
param **.hostC[*].mobility.constraintAreaMinX 850m
param **.hostC[*].mobility.constraintAreaMaxX 1050m
param **.hostC[*].mobility.constraintAreaMinY 850m
param **.hostC[*].mobility.constraintAreaMaxY 1050m

vector 0 UAVNetwork_Multi.hostA[0].wlan[0].radio radioMode:vector ETV
attr interpolationmode sample-hold
attr source radioModeChanged
attr title "Radio mode, vector"
vector 1 UAVNetwork_Multi.hostA[1].wlan[0].radio radioMode:vector ETV
attr interpolationmode sample-hold
attr source radioModeChanged
attr title "Radio mode, vector"
vector 2 UAVNetwork_Multi.hostA[2].wlan[0].radio radioMode:vector ETV
attr interpolationmode sample-hold
attr source radioModeChanged
attr title "Radio mode, vector"
vector 3 UAVNetwork_Multi.hostA[3].wlan[0].radio radioMode:vector ETV
attr interpolationmode sample-hold
attr source radioModeChanged
attr title "Radio mode, vector"
vector 4 UAVNetwork_Multi.hostA[4].wlan[0].radio radioMode:vector ETV
attr interpolationmode sample-hold
attr source radioModeChanged
attr title "Radio mode, vector"
vector 5 UAVNetwork_Multi.hostA[5].wlan[0].radio radioMode:vector ETV
attr interpolationmode sample-hold
attr source radioModeChanged
attr title "Radio mode, vector"
vector 6 UAVNetwork_Multi.hostA[6].wlan[0].radio radioMode:vector ETV
attr interpolationmode sample-hold
attr source radioModeChanged
attr title "Radio mode, vector"
vector 7 UAVNetwork_Multi.hostA[7].wlan[0].radio radioMode:vector ETV
attr interpolationmode sample-hold
attr source radioModeChanged
attr title "Radio mode, vector"
vector 8 UAVNetwork_Multi.hostA[8].wlan[0].radio radioMode:vector ETV
attr interpolationmode sample-hold
attr source radioModeChanged
attr title "Radio mode, vector"
vector 9 UAVNetwork_Multi.hostA[9].wlan[0].radio radioMode:vector ETV
attr interpolationmode sample-hold
attr source radioModeChanged
attr title "Radio mode, vector"
vector 10 UAVNetwork_Multi.hostA[10].wlan[0].radio radioMode:vector ETV
attr interpolationmode sample-hold
attr source radioModeChanged
attr title "Radio mode, vector"
vector 11 UAVNetwork_Multi.hostA[11].wlan[0].radio radioMode:vector ETV
attr interpolationmode sample-hold
attr source radioModeChanged
attr title "Radio mode, vector"
vector 12 UAVNetwork_Multi.hostA[12].wlan[0].radio radioMode:vector ETV
attr interpolationmode sample-hold
attr source radioModeChanged
attr title "Radio mode, vector"
vector 13 UAVNetwork_Multi.hostA[13].wlan[0].radio radioMode:vector ETV
attr interpolationmode sample-hold
attr source radioModeChanged
attr title "Radio mode, vector"
vector 14 UAVNetwork_Multi.hostA[14].wlan[0].radio radioMode:vector ETV
attr interpolationmode sample-hold
attr source radioModeChanged
attr title "Radio mode, vector"
vector 15 UAVNetwork_Multi.hostA[15].wlan[0].radio radioMode:vector ETV
attr interpolationmode sample-hold
attr source radioModeChanged
attr title "Radio mode, vector"
vector 16 UAVNetwork_Multi.hostA[16].wlan[0].radio radioMode:vector ETV
attr interpolationmode sample-hold
attr source radioModeChanged
attr title "Radio mode, vector"
vector 17 UAVNetwork_Multi.hostA[17].wlan[0].radio radioMode:vector ETV
attr interpolationmode sample-hold
attr source radioModeChanged
attr title "Radio mode, vector"
vector 18 UAVNetwork_Multi.hostA[18].wlan[0].radio radioMode:vector ETV
attr interpolationmode sample-hold
attr source radioModeChanged
attr title "Radio mode, vector"
vector 19 UAVNetwork_Multi.hostA[19].wlan[0].radio radioMode:vector ETV
attr interpolationmode sample-hold
attr source radioModeChanged
attr title "Radio mode, vector"
vector 20 UAVNetwork_Multi.hostA[20].wlan[0].radio radioMode:vector ETV
attr interpolationmode sample-hold
attr source radioModeChanged
attr title "Radio mode, vector"
vector 21 UAVNetwork_Multi.hostA[21].wlan[0].radio radioMode:vector ETV
attr interpolationmode sample-hold
attr source radioModeChanged
attr title "Radio mode, vector"
vector 22 UAVNetwork_Multi.hostA[22].wlan[0].radio radioMode:vector ETV
attr interpolationmode sample-hold
attr source radioModeChanged
attr title "Radio mode, vector"
vector 23 UAVNetwork_Multi.hostA[23].wlan[0].radio radioMode:vector ETV
attr interpolationmode sample-hold
attr source radioModeChanged
attr title "Radio mode, vector"
vector 24 UAVNetwork_Multi.hostA[24].wlan[0].radio radioMode:vector ETV
attr interpolationmode sample-hold
attr source radioModeChanged
attr title "Radio mode, vector"
vector 25 UAVNetwork_Multi.hostA[25].wlan[0].radio radioMode:vector ETV
attr interpolationmode sample-hold
attr source radioModeChanged
attr title "Radio mode, vector"
vector 26 UAVNetwork_Multi.hostA[26].wlan[0].radio radioMode:vector ETV
attr interpolationmode sample-hold
attr source radioModeChanged
attr title "Radio mode, vector"
vector 27 UAVNetwork_Multi.hostA[27].wlan[0].radio radioMode:vector ETV
attr interpolationmode sample-hold
attr source radioModeChanged
attr title "Radio mode, vector"
vector 28 UAVNetwork_Multi.hostA[28].wlan[0].radio radioMode:vector ETV
attr interpolationmode sample-hold
attr source radioModeChanged
attr title "Radio mode, vector"
vector 29 UAVNetwork_Multi.hostA[29].wlan[0].radio radioMode:vector ETV
attr interpolationmode sample-hold
attr source radioModeChanged
attr title "Radio mode, vector"
vector 30 UAVNetwork_Multi.hostB[0].wlan[0].radio radioMode:vector ETV
attr interpolationmode sample-hold
attr source radioModeChanged
attr title "Radio mode, vector"
vector 31 UAVNetwork_Multi.hostB[1].wlan[0].radio radioMode:vector ETV
attr interpolationmode sample-hold
attr source radioModeChanged
attr title "Radio mode, vector"
vector 32 UAVNetwork_Multi.hostB[2].wlan[0].radio radioMode:vector ETV
attr interpolationmode sample-hold
attr source radioModeChanged
attr title "Radio mode, vector"
vector 33 UAVNetwork_Multi.hostB[3].wlan[0].radio radioMode:vector ETV
attr interpolationmode sample-hold
attr source radioModeChanged
attr title "Radio mode, vector"
vector 34 UAVNetwork_Multi.hostB[4].wlan[0].radio radioMode:vector ETV
attr interpolationmode sample-hold
attr source radioModeChanged
attr title "Radio mode, vector"
vector 35 UAVNetwork_Multi.hostB[5].wlan[0].radio radioMode:vector ETV
attr interpolationmode sample-hold
attr source radioModeChanged
attr title "Radio mode, vector"
vector 36 UAVNetwork_Multi.hostB[6].wlan[0].radio radioMode:vector ETV
attr interpolationmode sample-hold
attr source radioModeChanged
attr title "Radio mode, vector"
vector 37 UAVNetwork_Multi.hostB[7].wlan[0].radio radioMode:vector ETV
attr interpolationmode sample-hold
attr source radioModeChanged
attr title "Radio mode, vector"
vector 38 UAVNetwork_Multi.hostB[8].wlan[0].radio radioMode:vector ETV
attr interpolationmode sample-hold
attr source radioModeChanged
attr title "Radio mode, vector"
vector 39 UAVNetwork_Multi.hostB[9].wlan[0].radio radioMode:vector ETV
attr interpolationmode sample-hold
attr source radioModeChanged
attr title "Radio mode, vector"
vector 40 UAVNetwork_Multi.hostB[10].wlan[0].radio radioMode:vector ETV
attr interpolationmode sample-hold
attr source radioModeChanged
attr title "Radio mode, vector"
vector 41 UAVNetwork_Multi.hostB[11].wlan[0].radio radioMode:vector ETV
attr interpolationmode sample-hold
attr source radioModeChanged
attr title "Radio mode, vector"
vector 42 UAVNetwork_Multi.hostB[12].wlan[0].radio radioMode:vector ETV
attr interpolationmode sample-hold
attr source radioModeChanged
attr title "Radio mode, vector"
vector 43 UAVNetwork_Multi.hostB[13].wlan[0].radio radioMode:vector ETV
attr interpolationmode sample-hold
attr source radioModeChanged
attr title "Radio mode, vector"
vector 44 UAVNetwork_Multi.hostB[14].wlan[0].radio radioMode:vector ETV
attr interpolationmode sample-hold
attr source radioModeChanged
attr title "Radio mode, vector"
vector 45 UAVNetwork_Multi.hostB[15].wlan[0].radio radioMode:vector ETV
attr interpolationmode sample-hold
attr source radioModeChanged
attr title "Radio mode, vector"
vector 46 UAVNetwork_Multi.hostB[16].wlan[0].radio radioMode:vector ETV
attr interpolationmode sample-hold
attr source radioModeChanged
attr title "Radio mode, vector"
vector 47 UAVNetwork_Multi.hostB[17].wlan[0].radio radioMode:vector ETV
attr interpolationmode sample-hold
attr source radioModeChanged
attr title "Radio mode, vector"
vector 48 UAVNetwork_Multi.hostB[18].wlan[0].radio radioMode:vector ETV
attr interpolationmode sample-hold
attr source radioModeChanged
attr title "Radio mode, vector"
vector 49 UAVNetwork_Multi.hostB[19].wlan[0].radio radioMode:vector ETV
attr interpolationmode sample-hold
attr source radioModeChanged
attr title "Radio mode, vector"
vector 50 UAVNetwork_Multi.hostB[20].wlan[0].radio radioMode:vector ETV
attr interpolationmode sample-hold
attr source radioModeChanged
attr title "Radio mode, vector"
vector 51 UAVNetwork_Multi.hostB[21].wlan[0].radio radioMode:vector ETV
attr interpolationmode sample-hold
attr source radioModeChanged
attr title "Radio mode, vector"
vector 52 UAVNetwork_Multi.hostB[22].wlan[0].radio radioMode:vector ETV
attr interpolationmode sample-hold
attr source radioModeChanged
attr title "Radio mode, vector"
vector 53 UAVNetwork_Multi.hostB[23].wlan[0].radio radioMode:vector ETV
attr interpolationmode sample-hold
attr source radioModeChanged
attr title "Radio mode, vector"
vector 54 UAVNetwork_Multi.hostB[24].wlan[0].radio radioMode:vector ETV
attr interpolationmode sample-hold
attr source radioModeChanged
attr title "Radio mode, vector"
vector 55 UAVNetwork_Multi.hostB[25].wlan[0].radio radioMode:vector ETV
attr interpolationmode sample-hold
attr source radioModeChanged
attr title "Radio mode, vector"
vector 56 UAVNetwork_Multi.hostB[26].wlan[0].radio radioMode:vector ETV
attr interpolationmode sample-hold
attr source radioModeChanged
attr title "Radio mode, vector"
vector 57 UAVNetwork_Multi.hostB[27].wlan[0].radio radioMode:vector ETV
attr interpolationmode sample-hold
attr source radioModeChanged
attr title "Radio mode, vector"
vector 58 UAVNetwork_Multi.hostB[28].wlan[0].radio radioMode:vector ETV
attr interpolationmode sample-hold
attr source radioModeChanged
attr title "Radio mode, vector"
vector 59 UAVNetwork_Multi.hostB[29].wlan[0].radio radioMode:vector ETV
attr interpolationmode sample-hold
attr source radioModeChanged
attr title "Radio mode, vector"
vector 60 UAVNetwork_Multi.hostC[0].wlan[0].radio radioMode:vector ETV
attr interpolationmode sample-hold
attr source radioModeChanged
attr title "Radio mode, vector"
vector 61 UAVNetwork_Multi.hostC[1].wlan[0].radio radioMode:vector ETV
attr interpolationmode sample-hold
attr source radioModeChanged
attr title "Radio mode, vector"
vector 62 UAVNetwork_Multi.hostC[2].wlan[0].radio radioMode:vector ETV
attr interpolationmode sample-hold
attr source radioModeChanged
attr title "Radio mode, vector"
vector 63 UAVNetwork_Multi.hostC[3].wlan[0].radio radioMode:vector ETV
attr interpolationmode sample-hold
attr source radioModeChanged
attr title "Radio mode, vector"
vector 64 UAVNetwork_Multi.hostC[4].wlan[0].radio radioMode:vector ETV
attr interpolationmode sample-hold
attr source radioModeChanged
attr title "Radio mode, vector"
vector 65 UAVNetwork_Multi.hostC[5].wlan[0].radio radioMode:vector ETV
attr interpolationmode sample-hold
attr source radioModeChanged
attr title "Radio mode, vector"
vector 66 UAVNetwork_Multi.hostC[6].wlan[0].radio radioMode:vector ETV
attr interpolationmode sample-hold
attr source radioModeChanged
attr title "Radio mode, vector"
vector 67 UAVNetwork_Multi.hostC[7].wlan[0].radio radioMode:vector ETV
attr interpolationmode sample-hold
attr source radioModeChanged
attr title "Radio mode, vector"
vector 68 UAVNetwork_Multi.hostC[8].wlan[0].radio radioMode:vector ETV
attr interpolationmode sample-hold
attr source radioModeChanged
attr title "Radio mode, vector"
vector 69 UAVNetwork_Multi.hostC[9].wlan[0].radio radioMode:vector ETV
attr interpolationmode sample-hold
attr source radioModeChanged
attr title "Radio mode, vector"
vector 70 UAVNetwork_Multi.hostC[10].wlan[0].radio radioMode:vector ETV
attr interpolationmode sample-hold
attr source radioModeChanged
attr title "Radio mode, vector"
vector 71 UAVNetwork_Multi.hostC[11].wlan[0].radio radioMode:vector ETV
attr interpolationmode sample-hold
attr source radioModeChanged
attr title "Radio mode, vector"
vector 72 UAVNetwork_Multi.hostC[12].wlan[0].radio radioMode:vector ETV
attr interpolationmode sample-hold
attr source radioModeChanged
attr title "Radio mode, vector"
vector 73 UAVNetwork_Multi.hostC[13].wlan[0].radio radioMode:vector ETV
attr interpolationmode sample-hold
attr source radioModeChanged
attr title "Radio mode, vector"
vector 74 UAVNetwork_Multi.hostC[14].wlan[0].radio radioMode:vector ETV
attr interpolationmode sample-hold
attr source radioModeChanged
attr title "Radio mode, vector"
vector 75 UAVNetwork_Multi.hostC[15].wlan[0].radio radioMode:vector ETV
attr interpolationmode sample-hold
attr source radioModeChanged
attr title "Radio mode, vector"
vector 76 UAVNetwork_Multi.hostC[16].wlan[0].radio radioMode:vector ETV
attr interpolationmode sample-hold
attr source radioModeChanged
attr title "Radio mode, vector"
vector 77 UAVNetwork_Multi.hostC[17].wlan[0].radio radioMode:vector ETV
attr interpolationmode sample-hold
attr source radioModeChanged
attr title "Radio mode, vector"
vector 78 UAVNetwork_Multi.hostC[18].wlan[0].radio radioMode:vector ETV
attr interpolationmode sample-hold
attr source radioModeChanged
attr title "Radio mode, vector"
vector 79 UAVNetwork_Multi.hostC[19].wlan[0].radio radioMode:vector ETV
attr interpolationmode sample-hold
attr source radioModeChanged
attr title "Radio mode, vector"
vector 80 UAVNetwork_Multi.hostC[20].wlan[0].radio radioMode:vector ETV
attr interpolationmode sample-hold
attr source radioModeChanged
attr title "Radio mode, vector"
vector 81 UAVNetwork_Multi.hostC[21].wlan[0].radio radioMode:vector ETV
attr interpolationmode sample-hold
attr source radioModeChanged
attr title "Radio mode, vector"
vector 82 UAVNetwork_Multi.hostC[22].wlan[0].radio radioMode:vector ETV
attr interpolationmode sample-hold
attr source radioModeChanged
attr title "Radio mode, vector"
vector 83 UAVNetwork_Multi.hostC[23].wlan[0].radio radioMode:vector ETV
attr interpolationmode sample-hold
attr source radioModeChanged
attr title "Radio mode, vector"
vector 84 UAVNetwork_Multi.hostC[24].wlan[0].radio radioMode:vector ETV
attr interpolationmode sample-hold
attr source radioModeChanged
attr title "Radio mode, vector"
vector 85 UAVNetwork_Multi.hostC[25].wlan[0].radio radioMode:vector ETV
attr interpolationmode sample-hold
attr source radioModeChanged
attr title "Radio mode, vector"
vector 86 UAVNetwork_Multi.hostC[26].wlan[0].radio radioMode:vector ETV
attr interpolationmode sample-hold
attr source radioModeChanged
attr title "Radio mode, vector"
vector 87 UAVNetwork_Multi.hostC[27].wlan[0].radio radioMode:vector ETV
attr interpolationmode sample-hold
attr source radioModeChanged
attr title "Radio mode, vector"
vector 88 UAVNetwork_Multi.hostC[28].wlan[0].radio radioMode:vector ETV
attr interpolationmode sample-hold
attr source radioModeChanged
attr title "Radio mode, vector"
vector 89 UAVNetwork_Multi.hostC[29].wlan[0].radio radioMode:vector ETV
attr interpolationmode sample-hold
attr source radioModeChanged
attr title "Radio mode, vector"
vector 90 UAVNetwork_Multi.hostRouters[0].wlan[0].radio radioMode:vector ETV
attr interpolationmode sample-hold
attr source radioModeChanged
attr title "Radio mode, vector"
vector 91 UAVNetwork_Multi.hostRouters[1].wlan[0].radio radioMode:vector ETV
attr interpolationmode sample-hold
attr source radioModeChanged
attr title "Radio mode, vector"
vector 92 UAVNetwork_Multi.hostRouters[2].wlan[0].radio radioMode:vector ETV
attr interpolationmode sample-hold
attr source radioModeChanged
attr title "Radio mode, vector"
vector 93 UAVNetwork_Multi.hostA[0].wlan[0].radio receptionState:vector ETV
attr interpolationmode sample-hold
attr source receptionStateChanged
attr title "Radio reception state, vector"
vector 94 UAVNetwork_Multi.hostA[1].wlan[0].radio receptionState:vector ETV
attr interpolationmode sample-hold
attr source receptionStateChanged
attr title "Radio reception state, vector"
vector 95 UAVNetwork_Multi.hostA[2].wlan[0].radio receptionState:vector ETV
attr interpolationmode sample-hold
attr source receptionStateChanged
attr title "Radio reception state, vector"
vector 96 UAVNetwork_Multi.hostA[3].wlan[0].radio receptionState:vector ETV
attr interpolationmode sample-hold
attr source receptionStateChanged
attr title "Radio reception state, vector"
vector 97 UAVNetwork_Multi.hostA[4].wlan[0].radio receptionState:vector ETV
attr interpolationmode sample-hold
attr source receptionStateChanged
attr title "Radio reception state, vector"
vector 98 UAVNetwork_Multi.hostA[5].wlan[0].radio receptionState:vector ETV
attr interpolationmode sample-hold
attr source receptionStateChanged
attr title "Radio reception state, vector"
vector 99 UAVNetwork_Multi.hostA[6].wlan[0].radio receptionState:vector ETV
attr interpolationmode sample-hold
attr source receptionStateChanged
attr title "Radio reception state, vector"
vector 100 UAVNetwork_Multi.hostA[7].wlan[0].radio receptionState:vector ETV
attr interpolationmode sample-hold
attr source receptionStateChanged
attr title "Radio reception state, vector"
vector 101 UAVNetwork_Multi.hostA[8].wlan[0].radio receptionState:vector ETV
attr interpolationmode sample-hold
attr source receptionStateChanged
attr title "Radio reception state, vector"
vector 102 UAVNetwork_Multi.hostA[9].wlan[0].radio receptionState:vector ETV
attr interpolationmode sample-hold
attr source receptionStateChanged
attr title "Radio reception state, vector"
vector 103 UAVNetwork_Multi.hostA[10].wlan[0].radio receptionState:vector ETV
attr interpolationmode sample-hold
attr source receptionStateChanged
attr title "Radio reception state, vector"
vector 104 UAVNetwork_Multi.hostA[11].wlan[0].radio receptionState:vector ETV
attr interpolationmode sample-hold
attr source receptionStateChanged
attr title "Radio reception state, vector"
vector 105 UAVNetwork_Multi.hostA[12].wlan[0].radio receptionState:vector ETV
attr interpolationmode sample-hold
attr source receptionStateChanged
attr title "Radio reception state, vector"
vector 106 UAVNetwork_Multi.hostA[13].wlan[0].radio receptionState:vector ETV
attr interpolationmode sample-hold
attr source receptionStateChanged
attr title "Radio reception state, vector"
vector 107 UAVNetwork_Multi.hostA[14].wlan[0].radio receptionState:vector ETV
attr interpolationmode sample-hold
attr source receptionStateChanged
attr title "Radio reception state, vector"
vector 108 UAVNetwork_Multi.hostA[15].wlan[0].radio receptionState:vector ETV
attr interpolationmode sample-hold
attr source receptionStateChanged
attr title "Radio reception state, vector"
vector 109 UAVNetwork_Multi.hostA[16].wlan[0].radio receptionState:vector ETV
attr interpolationmode sample-hold
attr source receptionStateChanged
attr title "Radio reception state, vector"
vector 110 UAVNetwork_Multi.hostA[17].wlan[0].radio receptionState:vector ETV
attr interpolationmode sample-hold
attr source receptionStateChanged
attr title "Radio reception state, vector"
vector 111 UAVNetwork_Multi.hostA[18].wlan[0].radio receptionState:vector ETV
attr interpolationmode sample-hold
attr source receptionStateChanged
attr title "Radio reception state, vector"
vector 112 UAVNetwork_Multi.hostA[19].wlan[0].radio receptionState:vector ETV
attr interpolationmode sample-hold
attr source receptionStateChanged
attr title "Radio reception state, vector"
vector 113 UAVNetwork_Multi.hostA[20].wlan[0].radio receptionState:vector ETV
attr interpolationmode sample-hold
attr source receptionStateChanged
attr title "Radio reception state, vector"
vector 114 UAVNetwork_Multi.hostA[21].wlan[0].radio receptionState:vector ETV
attr interpolationmode sample-hold
attr source receptionStateChanged
attr title "Radio reception state, vector"
vector 115 UAVNetwork_Multi.hostA[22].wlan[0].radio receptionState:vector ETV
attr interpolationmode sample-hold
attr source receptionStateChanged
attr title "Radio reception state, vector"
vector 116 UAVNetwork_Multi.hostA[23].wlan[0].radio receptionState:vector ETV
attr interpolationmode sample-hold
attr source receptionStateChanged
attr title "Radio reception state, vector"
vector 117 UAVNetwork_Multi.hostA[24].wlan[0].radio receptionState:vector ETV
attr interpolationmode sample-hold
attr source receptionStateChanged
attr title "Radio reception state, vector"
vector 118 UAVNetwork_Multi.hostA[25].wlan[0].radio receptionState:vector ETV
attr interpolationmode sample-hold
attr source receptionStateChanged
attr title "Radio reception state, vector"
vector 119 UAVNetwork_Multi.hostA[26].wlan[0].radio receptionState:vector ETV
attr interpolationmode sample-hold
attr source receptionStateChanged
attr title "Radio reception state, vector"
vector 120 UAVNetwork_Multi.hostA[27].wlan[0].radio receptionState:vector ETV
attr interpolationmode sample-hold
attr source receptionStateChanged
attr title "Radio reception state, vector"
vector 121 UAVNetwork_Multi.hostA[28].wlan[0].radio receptionState:vector ETV
attr interpolationmode sample-hold
attr source receptionStateChanged
attr title "Radio reception state, vector"
vector 122 UAVNetwork_Multi.hostA[29].wlan[0].radio receptionState:vector ETV
attr interpolationmode sample-hold
attr source receptionStateChanged
attr title "Radio reception state, vector"
vector 123 UAVNetwork_Multi.hostB[0].wlan[0].radio receptionState:vector ETV
attr interpolationmode sample-hold
attr source receptionStateChanged
attr title "Radio reception state, vector"
vector 124 UAVNetwork_Multi.hostB[1].wlan[0].radio receptionState:vector ETV
attr interpolationmode sample-hold
attr source receptionStateChanged
attr title "Radio reception state, vector"
vector 125 UAVNetwork_Multi.hostB[2].wlan[0].radio receptionState:vector ETV
attr interpolationmode sample-hold
attr source receptionStateChanged
attr title "Radio reception state, vector"
vector 126 UAVNetwork_Multi.hostB[3].wlan[0].radio receptionState:vector ETV
attr interpolationmode sample-hold
attr source receptionStateChanged
attr title "Radio reception state, vector"
vector 127 UAVNetwork_Multi.hostB[4].wlan[0].radio receptionState:vector ETV
attr interpolationmode sample-hold
attr source receptionStateChanged
attr title "Radio reception state, vector"
vector 128 UAVNetwork_Multi.hostB[5].wlan[0].radio receptionState:vector ETV
attr interpolationmode sample-hold
attr source receptionStateChanged
attr title "Radio reception state, vector"
vector 129 UAVNetwork_Multi.hostB[6].wlan[0].radio receptionState:vector ETV
attr interpolationmode sample-hold
attr source receptionStateChanged
attr title "Radio reception state, vector"
vector 130 UAVNetwork_Multi.hostB[7].wlan[0].radio receptionState:vector ETV
attr interpolationmode sample-hold
attr source receptionStateChanged
attr title "Radio reception state, vector"
vector 131 UAVNetwork_Multi.hostB[8].wlan[0].radio receptionState:vector ETV
attr interpolationmode sample-hold
attr source receptionStateChanged
attr title "Radio reception state, vector"
vector 132 UAVNetwork_Multi.hostB[9].wlan[0].radio receptionState:vector ETV
attr interpolationmode sample-hold
attr source receptionStateChanged
attr title "Radio reception state, vector"
vector 133 UAVNetwork_Multi.hostB[10].wlan[0].radio receptionState:vector ETV
attr interpolationmode sample-hold
attr source receptionStateChanged
attr title "Radio reception state, vector"
vector 134 UAVNetwork_Multi.hostB[11].wlan[0].radio receptionState:vector ETV
attr interpolationmode sample-hold
attr source receptionStateChanged
attr title "Radio reception state, vector"
vector 135 UAVNetwork_Multi.hostB[12].wlan[0].radio receptionState:vector ETV
attr interpolationmode sample-hold
attr source receptionStateChanged
attr title "Radio reception state, vector"
vector 136 UAVNetwork_Multi.hostB[13].wlan[0].radio receptionState:vector ETV
attr interpolationmode sample-hold
attr source receptionStateChanged
attr title "Radio reception state, vector"
vector 137 UAVNetwork_Multi.hostB[14].wlan[0].radio receptionState:vector ETV
attr interpolationmode sample-hold
attr source receptionStateChanged
attr title "Radio reception state, vector"
vector 138 UAVNetwork_Multi.hostB[15].wlan[0].radio receptionState:vector ETV
attr interpolationmode sample-hold
attr source receptionStateChanged
attr title "Radio reception state, vector"
vector 139 UAVNetwork_Multi.hostB[16].wlan[0].radio receptionState:vector ETV
attr interpolationmode sample-hold
attr source receptionStateChanged
attr title "Radio reception state, vector"
vector 140 UAVNetwork_Multi.hostB[17].wlan[0].radio receptionState:vector ETV
attr interpolationmode sample-hold
attr source receptionStateChanged
attr title "Radio reception state, vector"
vector 141 UAVNetwork_Multi.hostB[18].wlan[0].radio receptionState:vector ETV
attr interpolationmode sample-hold
attr source receptionStateChanged
attr title "Radio reception state, vector"
vector 142 UAVNetwork_Multi.hostB[19].wlan[0].radio receptionState:vector ETV
attr interpolationmode sample-hold
attr source receptionStateChanged
attr title "Radio reception state, vector"
vector 143 UAVNetwork_Multi.hostB[20].wlan[0].radio receptionState:vector ETV
attr interpolationmode sample-hold
attr source receptionStateChanged
attr title "Radio reception state, vector"
vector 144 UAVNetwork_Multi.hostB[21].wlan[0].radio receptionState:vector ETV
attr interpolationmode sample-hold
attr source receptionStateChanged
attr title "Radio reception state, vector"
vector 145 UAVNetwork_Multi.hostB[22].wlan[0].radio receptionState:vector ETV
attr interpolationmode sample-hold
attr source receptionStateChanged
attr title "Radio reception state, vector"
vector 146 UAVNetwork_Multi.hostB[23].wlan[0].radio receptionState:vector ETV
attr interpolationmode sample-hold
attr source receptionStateChanged
attr title "Radio reception state, vector"
vector 147 UAVNetwork_Multi.hostB[24].wlan[0].radio receptionState:vector ETV
attr interpolationmode sample-hold
attr source receptionStateChanged
attr title "Radio reception state, vector"
vector 148 UAVNetwork_Multi.hostB[25].wlan[0].radio receptionState:vector ETV
attr interpolationmode sample-hold
attr source receptionStateChanged
attr title "Radio reception state, vector"
vector 149 UAVNetwork_Multi.hostB[26].wlan[0].radio receptionState:vector ETV
attr interpolationmode sample-hold
attr source receptionStateChanged
attr title "Radio reception state, vector"
vector 150 UAVNetwork_Multi.hostB[27].wlan[0].radio receptionState:vector ETV
attr interpolationmode sample-hold
attr source receptionStateChanged
attr title "Radio reception state, vector"
vector 151 UAVNetwork_Multi.hostB[28].wlan[0].radio receptionState:vector ETV
attr interpolationmode sample-hold
attr source receptionStateChanged
attr title "Radio reception state, vector"
vector 152 UAVNetwork_Multi.hostB[29].wlan[0].radio receptionState:vector ETV
attr interpolationmode sample-hold
attr source receptionStateChanged
attr title "Radio reception state, vector"
vector 153 UAVNetwork_Multi.hostC[0].wlan[0].radio receptionState:vector ETV
attr interpolationmode sample-hold
attr source receptionStateChanged
attr title "Radio reception state, vector"
vector 154 UAVNetwork_Multi.hostC[1].wlan[0].radio receptionState:vector ETV
attr interpolationmode sample-hold
attr source receptionStateChanged
attr title "Radio reception state, vector"
vector 155 UAVNetwork_Multi.hostC[2].wlan[0].radio receptionState:vector ETV
attr interpolationmode sample-hold
attr source receptionStateChanged
attr title "Radio reception state, vector"
vector 156 UAVNetwork_Multi.hostC[3].wlan[0].radio receptionState:vector ETV
attr interpolationmode sample-hold
attr source receptionStateChanged
attr title "Radio reception state, vector"
vector 157 UAVNetwork_Multi.hostC[4].wlan[0].radio receptionState:vector ETV
attr interpolationmode sample-hold
attr source receptionStateChanged
attr title "Radio reception state, vector"
vector 158 UAVNetwork_Multi.hostC[5].wlan[0].radio receptionState:vector ETV
attr interpolationmode sample-hold
attr source receptionStateChanged
attr title "Radio reception state, vector"
vector 159 UAVNetwork_Multi.hostC[6].wlan[0].radio receptionState:vector ETV
attr interpolationmode sample-hold
attr source receptionStateChanged
attr title "Radio reception state, vector"
vector 160 UAVNetwork_Multi.hostC[7].wlan[0].radio receptionState:vector ETV
attr interpolationmode sample-hold
attr source receptionStateChanged
attr title "Radio reception state, vector"
vector 161 UAVNetwork_Multi.hostC[8].wlan[0].radio receptionState:vector ETV
attr interpolationmode sample-hold
attr source receptionStateChanged
attr title "Radio reception state, vector"
vector 162 UAVNetwork_Multi.hostC[9].wlan[0].radio receptionState:vector ETV
attr interpolationmode sample-hold
attr source receptionStateChanged
attr title "Radio reception state, vector"
vector 163 UAVNetwork_Multi.hostC[10].wlan[0].radio receptionState:vector ETV
attr interpolationmode sample-hold
attr source receptionStateChanged
attr title "Radio reception state, vector"
vector 164 UAVNetwork_Multi.hostC[11].wlan[0].radio receptionState:vector ETV
attr interpolationmode sample-hold
attr source receptionStateChanged
attr title "Radio reception state, vector"
vector 165 UAVNetwork_Multi.hostC[12].wlan[0].radio receptionState:vector ETV
attr interpolationmode sample-hold
attr source receptionStateChanged
attr title "Radio reception state, vector"
vector 166 UAVNetwork_Multi.hostC[13].wlan[0].radio receptionState:vector ETV
attr interpolationmode sample-hold
attr source receptionStateChanged
attr title "Radio reception state, vector"
vector 167 UAVNetwork_Multi.hostC[14].wlan[0].radio receptionState:vector ETV
attr interpolationmode sample-hold
attr source receptionStateChanged
attr title "Radio reception state, vector"
vector 168 UAVNetwork_Multi.hostC[15].wlan[0].radio receptionState:vector ETV
attr interpolationmode sample-hold
attr source receptionStateChanged
attr title "Radio reception state, vector"
vector 169 UAVNetwork_Multi.hostC[16].wlan[0].radio receptionState:vector ETV
attr interpolationmode sample-hold
attr source receptionStateChanged
attr title "Radio reception state, vector"
vector 170 UAVNetwork_Multi.hostC[17].wlan[0].radio receptionState:vector ETV
attr interpolationmode sample-hold
attr source receptionStateChanged
attr title "Radio reception state, vector"
vector 171 UAVNetwork_Multi.hostC[18].wlan[0].radio receptionState:vector ETV
attr interpolationmode sample-hold
attr source receptionStateChanged
attr title "Radio reception state, vector"
vector 172 UAVNetwork_Multi.hostC[19].wlan[0].radio receptionState:vector ETV
attr interpolationmode sample-hold
attr source receptionStateChanged
attr title "Radio reception state, vector"
vector 173 UAVNetwork_Multi.hostC[20].wlan[0].radio receptionState:vector ETV
attr interpolationmode sample-hold
attr source receptionStateChanged
attr title "Radio reception state, vector"
vector 174 UAVNetwork_Multi.hostC[21].wlan[0].radio receptionState:vector ETV
attr interpolationmode sample-hold
attr source receptionStateChanged
attr title "Radio reception state, vector"
vector 175 UAVNetwork_Multi.hostC[22].wlan[0].radio receptionState:vector ETV
attr interpolationmode sample-hold
attr source receptionStateChanged
attr title "Radio reception state, vector"
vector 176 UAVNetwork_Multi.hostC[23].wlan[0].radio receptionState:vector ETV
attr interpolationmode sample-hold
attr source receptionStateChanged
attr title "Radio reception state, vector"
vector 177 UAVNetwork_Multi.hostC[24].wlan[0].radio receptionState:vector ETV
attr interpolationmode sample-hold
attr source receptionStateChanged
attr title "Radio reception state, vector"
vector 178 UAVNetwork_Multi.hostC[25].wlan[0].radio receptionState:vector ETV
attr interpolationmode sample-hold
attr source receptionStateChanged
attr title "Radio reception state, vector"
vector 179 UAVNetwork_Multi.hostC[26].wlan[0].radio receptionState:vector ETV
attr interpolationmode sample-hold
attr source receptionStateChanged
attr title "Radio reception state, vector"
vector 180 UAVNetwork_Multi.hostC[27].wlan[0].radio receptionState:vector ETV
attr interpolationmode sample-hold
attr source receptionStateChanged
attr title "Radio reception state, vector"
vector 181 UAVNetwork_Multi.hostC[28].wlan[0].radio receptionState:vector ETV
attr interpolationmode sample-hold
attr source receptionStateChanged
attr title "Radio reception state, vector"
vector 182 UAVNetwork_Multi.hostC[29].wlan[0].radio receptionState:vector ETV
attr interpolationmode sample-hold
attr source receptionStateChanged
attr title "Radio reception state, vector"
vector 183 UAVNetwork_Multi.hostRouters[0].wlan[0].radio receptionState:vector ETV
attr interpolationmode sample-hold
attr source receptionStateChanged
attr title "Radio reception state, vector"
vector 184 UAVNetwork_Multi.hostRouters[1].wlan[0].radio receptionState:vector ETV
attr interpolationmode sample-hold
attr source receptionStateChanged
attr title "Radio reception state, vector"
vector 185 UAVNetwork_Multi.hostRouters[2].wlan[0].radio receptionState:vector ETV
attr interpolationmode sample-hold
attr source receptionStateChanged
attr title "Radio reception state, vector"
0	42050 27 0 0 0 0 3 0 2 2 4
1	42077 27 0 0 0 0 3 0 2 2 4
2	42104 27 0 0 0 0 3 0 2 2 4
3	42131 27 0 0 0 0 3 0 2 2 4
4	42158 27 0 0 0 0 3 0 2 2 4
5	42185 27 0 0 0 0 3 0 2 2 4
6	42212 27 0 0 0 0 3 0 2 2 4
7	42239 27 0 0 0 0 3 0 2 2 4
8	42266 27 0 0 0 0 3 0 2 2 4
9	42293 27 0 0 0 0 3 0 2 2 4
10	42320 30 0 0 0 0 3 0 2 2 4
11	42350 30 0 0 0 0 3 0 2 2 4
12	42380 30 0 0 0 0 3 0 2 2 4
13	42410 30 0 0 0 0 3 0 2 2 4
14	42440 30 0 0 0 0 3 0 2 2 4
15	42470 30 0 0 0 0 3 0 2 2 4
16	42500 30 0 0 0 0 3 0 2 2 4
17	42530 30 0 0 0 0 3 0 2 2 4
18	42560 30 0 0 0 0 3 0 2 2 4
19	42590 30 0 0 0 0 3 0 2 2 4
20	42620 30 0 0 0 0 3 0 2 2 4
21	42650 30 0 0 0 0 3 0 2 2 4
22	42680 30 0 0 0 0 3 0 2 2 4
23	42710 30 0 0 0 0 3 0 2 2 4
24	42740 30 0 0 0 0 3 0 2 2 4
25	42770 30 0 0 0 0 3 0 2 2 4
26	42800 30 0 0 0 0 3 0 2 2 4
27	42830 30 0 0 0 0 3 0 2 2 4
28	42860 30 0 0 0 0 3 0 2 2 4
29	42890 30 0 0 0 0 3 0 2 2 4
30	42920 30 0 0 0 0 3 0 2 2 4
31	42950 30 0 0 0 0 3 0 2 2 4
32	42980 30 0 0 0 0 3 0 2 2 4
33	43010 30 0 0 0 0 3 0 2 2 4
34	43040 30 0 0 0 0 3 0 2 2 4
35	43070 30 0 0 0 0 3 0 2 2 4
36	43100 30 0 0 0 0 3 0 2 2 4
37	43130 30 0 0 0 0 3 0 2 2 4
38	43160 30 0 0 0 0 3 0 2 2 4
39	43190 30 0 0 0 0 3 0 2 2 4
40	43220 30 0 0 0 0 3 0 2 2 4
41	43250 30 0 0 0 0 3 0 2 2 4
42	43280 30 0 0 0 0 3 0 2 2 4
43	43310 30 0 0 0 0 3 0 2 2 4
44	43340 30 0 0 0 0 3 0 2 2 4
45	43370 30 0 0 0 0 3 0 2 2 4
46	43400 30 0 0 0 0 3 0 2 2 4
47	43430 30 0 0 0 0 3 0 2 2 4
48	43460 30 0 0 0 0 3 0 2 2 4
49	43490 30 0 0 0 0 3 0 2 2 4
50	43520 30 0 0 0 0 3 0 2 2 4
51	43550 30 0 0 0 0 3 0 2 2 4
52	43580 30 0 0 0 0 3 0 2 2 4
53	43610 30 0 0 0 0 3 0 2 2 4
54	43640 30 0 0 0 0 3 0 2 2 4
55	43670 30 0 0 0 0 3 0 2 2 4
56	43700 30 0 0 0 0 3 0 2 2 4
57	43730 30 0 0 0 0 3 0 2 2 4
58	43760 30 0 0 0 0 3 0 2 2 4
59	43790 30 0 0 0 0 3 0 2 2 4
60	43820 30 0 0 0 0 3 0 2 2 4
61	43850 30 0 0 0 0 3 0 2 2 4
62	43880 30 0 0 0 0 3 0 2 2 4
63	43910 30 0 0 0 0 3 0 2 2 4
64	43940 30 0 0 0 0 3 0 2 2 4
65	43970 30 0 0 0 0 3 0 2 2 4
66	44000 30 0 0 0 0 3 0 2 2 4
67	44030 30 0 0 0 0 3 0 2 2 4
68	44060 30 0 0 0 0 3 0 2 2 4
69	44090 30 0 0 0 0 3 0 2 2 4
70	44120 30 0 0 0 0 3 0 2 2 4
71	44150 30 0 0 0 0 3 0 2 2 4
72	44180 30 0 0 0 0 3 0 2 2 4
73	44210 30 0 0 0 0 3 0 2 2 4
74	44240 30 0 0 0 0 3 0 2 2 4
75	44270 30 0 0 0 0 3 0 2 2 4
76	44300 30 0 0 0 0 3 0 2 2 4
77	44330 30 0 0 0 0 3 0 2 2 4
78	44360 30 0 0 0 0 3 0 2 2 4
79	44390 30 0 0 0 0 3 0 2 2 4
80	44420 30 0 0 0 0 3 0 2 2 4
81	44450 30 0 0 0 0 3 0 2 2 4
82	44480 30 0 0 0 0 3 0 2 2 4
83	44510 30 0 0 0 0 3 0 2 2 4
84	44540 30 0 0 0 0 3 0 2 2 4
85	44570 30 0 0 0 0 3 0 2 2 4
86	44600 30 0 0 0 0 3 0 2 2 4
87	44630 30 0 0 0 0 3 0 2 2 4
88	44660 30 0 0 0 0 3 0 2 2 4
89	44690 30 0 0 0 0 3 0 2 2 4
90	44720 30 0 0 0 0 3 0 2 2 4
91	44750 30 0 0 0 0 3 0 2 2 4
92	44780 30 0 0 0 0 3 0 2 2 4
93	44810 10 0 0 0 0 1 1 1 1 1
94	44820 10 0 0 0 0 1 1 1 1 1
95	44830 10 0 0 0 0 1 1 1 1 1
96	44840 10 0 0 0 0 1 1 1 1 1
97	44850 10 0 0 0 0 1 1 1 1 1
98	44860 10 0 0 0 0 1 1 1 1 1
99	44870 10 0 0 0 0 1 1 1 1 1
100	44880 11 0 0 0 0 1 1 1 1 1
101	44891 11 0 0 0 0 1 1 1 1 1
102	44902 11 0 0 0 0 1 1 1 1 1
103	44913 11 0 0 0 0 1 1 1 1 1
104	44924 11 0 0 0 0 1 1 1 1 1
105	44935 11 0 0 0 0 1 1 1 1 1
106	44946 11 0 0 0 0 1 1 1 1 1
107	44957 11 0 0 0 0 1 1 1 1 1
108	44968 11 0 0 0 0 1 1 1 1 1
109	44979 11 0 0 0 0 1 1 1 1 1
110	44990 11 0 0 0 0 1 1 1 1 1
111	45001 11 0 0 0 0 1 1 1 1 1
112	45012 11 0 0 0 0 1 1 1 1 1
113	45023 11 0 0 0 0 1 1 1 1 1
114	45034 11 0 0 0 0 1 1 1 1 1
115	45045 11 0 0 0 0 1 1 1 1 1
116	45056 11 0 0 0 0 1 1 1 1 1
117	45067 11 0 0 0 0 1 1 1 1 1
118	45078 11 0 0 0 0 1 1 1 1 1
119	45089 11 0 0 0 0 1 1 1 1 1
120	45100 11 0 0 0 0 1 1 1 1 1
121	45111 11 0 0 0 0 1 1 1 1 1
122	45122 11 0 0 0 0 1 1 1 1 1
123	45133 11 0 0 0 0 1 1 1 1 1
124	45144 11 0 0 0 0 1 1 1 1 1
125	45155 11 0 0 0 0 1 1 1 1 1
126	45166 11 0 0 0 0 1 1 1 1 1
127	45177 11 0 0 0 0 1 1 1 1 1
128	45188 11 0 0 0 0 1 1 1 1 1
129	45199 11 0 0 0 0 1 1 1 1 1
130	45210 11 0 0 0 0 1 1 1 1 1
131	45221 11 0 0 0 0 1 1 1 1 1
132	45232 11 0 0 0 0 1 1 1 1 1
133	45243 11 0 0 0 0 1 1 1 1 1
134	45254 11 0 0 0 0 1 1 1 1 1
135	45265 11 0 0 0 0 1 1 1 1 1
136	45276 11 0 0 0 0 1 1 1 1 1
137	45287 11 0 0 0 0 1 1 1 1 1
138	45298 11 0 0 0 0 1 1 1 1 1
139	45309 11 0 0 0 0 1 1 1 1 1
140	45320 11 0 0 0 0 1 1 1 1 1
141	45331 11 0 0 0 0 1 1 1 1 1
142	45342 11 0 0 0 0 1 1 1 1 1
143	45353 11 0 0 0 0 1 1 1 1 1
144	45364 11 0 0 0 0 1 1 1 1 1
145	45375 11 0 0 0 0 1 1 1 1 1
146	45386 11 0 0 0 0 1 1 1 1 1
147	45397 11 0 0 0 0 1 1 1 1 1
148	45408 11 0 0 0 0 1 1 1 1 1
149	45419 11 0 0 0 0 1 1 1 1 1
150	45430 11 0 0 0 0 1 1 1 1 1
151	45441 11 0 0 0 0 1 1 1 1 1
152	45452 11 0 0 0 0 1 1 1 1 1
153	45463 11 0 0 0 0 1 1 1 1 1
154	45474 11 0 0 0 0 1 1 1 1 1
155	45485 11 0 0 0 0 1 1 1 1 1
156	45496 11 0 0 0 0 1 1 1 1 1
157	45507 11 0 0 0 0 1 1 1 1 1
158	45518 11 0 0 0 0 1 1 1 1 1
159	45529 11 0 0 0 0 1 1 1 1 1
160	45540 11 0 0 0 0 1 1 1 1 1
161	45551 11 0 0 0 0 1 1 1 1 1
162	45562 11 0 0 0 0 1 1 1 1 1
163	45573 11 0 0 0 0 1 1 1 1 1
164	45584 11 0 0 0 0 1 1 1 1 1
165	45595 11 0 0 0 0 1 1 1 1 1
166	45606 11 0 0 0 0 1 1 1 1 1
167	45617 11 0 0 0 0 1 1 1 1 1
168	45628 11 0 0 0 0 1 1 1 1 1
169	45639 11 0 0 0 0 1 1 1 1 1
170	45650 11 0 0 0 0 1 1 1 1 1
171	45661 11 0 0 0 0 1 1 1 1 1
172	45672 11 0 0 0 0 1 1 1 1 1
173	45683 11 0 0 0 0 1 1 1 1 1
174	45694 11 0 0 0 0 1 1 1 1 1
175	45705 11 0 0 0 0 1 1 1 1 1
176	45716 11 0 0 0 0 1 1 1 1 1
177	45727 11 0 0 0 0 1 1 1 1 1
178	45738 11 0 0 0 0 1 1 1 1 1
179	45749 11 0 0 0 0 1 1 1 1 1
180	45760 11 0 0 0 0 1 1 1 1 1
181	45771 11 0 0 0 0 1 1 1 1 1
182	45782 11 0 0 0 0 1 1 1 1 1
183	45793 11 0 0 0 0 1 1 1 1 1
184	45804 11 0 0 0 0 1 1 1 1 1
185	45815 11 0 0 0 0 1 1 1 1 1

