version 2
run General-0-20201218-11:25:43-14656
attr configname General
attr datetime 20201218-11:25:43
attr experiment General
attr inifile multi_test_real.ini
attr iterationvars "$pathlosstype=\"FreeSpacePathLoss\""
attr iterationvarsf pathlosstype=FreeSpacePathLoss-
attr measurement "$pathlosstype=\"FreeSpacePathLoss\""
attr network myuav.UAVNetwork_Multi
attr processid 14656
attr repetition 0
attr replication #0
attr resultdir results
attr runnumber 0
attr seedset 0
itervar pathlosstype "\"FreeSpacePathLoss\""
param *.configurator.addStaticRoutes false
param **.arp.typename "\"GlobalArp\""
param **.hostA[*].forwarding false
param **.hostB[*].forwarding false
param **.hostC[*].forwarding false
param **.hostA[*].multicastForwarding false
param **.hostB[*].multicastForwarding false
param **.hostC[*].multicastForwarding false
param **.hostRouters[*].forwarding true
param **.hostRouters[*].multicastForwarding true
param *.numHostsA 3
param *.numHostsB 3
param *.numHostsC 3
param *.configurator.config "xmldoc(\"multi_test.xml\")"
param *.configurator.dumpAddresses true
param *.configurator.dumpTopology true
param *.configurator.dumpLinks true
param *.configurator.dumpRoutes true
param *.configurator.dumpConfig "\"multi_test_dump.xml\""
param *.visualizer.osgVisualizer.typename "\"IntegratedOsgVisualizer\""
param *.visualizer.osgVisualizer.sceneVisualizer.clearColor "\"skyblue\""
param *.visualizer.osgVisualizer.sceneVisualizer.sceneImage "\"showcases/desert\""
param *.visualizer.osgVisualizer.sceneVisualizer.sceneImageSize 2000m
param *.visualizer.osgVisualizer.sceneVisualizer.axisLength 500m
param *.visualizer.osgVisualizer.sceneVisualizer.sceneMinX 0m
param *.visualizer.osgVisualizer.sceneVisualizer.sceneMinY 0m
param *.visualizer.osgVisualizer.sceneVisualizer.sceneMinZ 0m
param *.visualizer.osgVisualizer.sceneVisualizer.sceneMaxX 2000m
param *.visualizer.osgVisualizer.sceneVisualizer.sceneMaxY 2000m
param *.visualizer.osgVisualizer.sceneVisualizer.sceneMaxZ 1000m
param **.radio.displayCommunicationRange true
param *.visualizer.*.mediumVisualizer.displayCommunicationRanges true
param *.visualizer.*.dataLinkVisualizer.displayLinks true
param *.visualizer.*.dataLinkVisualizer.packetFilter "\"ping*\""
param *.visualizer.*.dataLinkVisualizer.nodeFilter "\"*\""
param *.visualizer.*.networkRouteVisualizer.displayRoutes true
param *.visualizer.*.networkRouteVisualizer.lineShift 0
param *.visualizer.*.networkRouteVisualizer.lineWidth 10
param *.visualizer.*.networkRouteVisualizer.packetFilter "\"ping*\""
param *.visualizer.*.mobilityVisualizer.displayMovementTrails true
param *.visualizer.*.mobilityVisualizer.animationSpeed 1
param *.host*.wlan[0].typename "\"WirelessInterface\""
param *.host*.wlan[0].mac.typename "\"CsmaCaMac\""
param *.host*.wlan[0].mac.ackTimeout 300us
param **.wlan[*].queue.typename "\"DropTailQueue\""
param *.hostRouters[*].wlan[0].mac.maxQueueSize 20000
param *.host*.wlan[0].mac.maxQueueSize 10000
param *.radioMedium.typename "\"ApskScalarRadioMedium\""
param *.radioMedium.backgroundNoise.power -90dBm
param *.radioMedium.mediumLimitCache.carrierFrequency 2GHz
param *.host*.wlan[0].radio.typename "\"ApskScalarRadio\""
param *.host*.wlan[0].radio.carrierFrequency 2GHz
param **.ignorePartialInterference true
param *.hostRouters[*].wlan[0].radio.bandwidth 10MHz
param *.host*.wlan[0].radio.bandwidth 10MHz
param *.host*.wlan[0].radio.transmitter.preambleDuration 10us
param *.host*.wlan[0].radio.transmitter.headerLength 8b
param *.host*.wlan[0].radio.receiver.sensitivity -85dBm
param *.host*.wlan[0].radio.receiver.energyDetection -85dBm
param *.host*.wlan[0].radio.receiver.snirThreshold 4dB
param **.host*.**.bitrate 1Mbps
param **.hostRouters[*].wlan[*].radio.transmitter.power 7mW
param **.host*.wlan[*].radio.transmitter.power 2mW
param *.radioMedium.pathLoss.typename "\"FreeSpacePathLoss\""
param *.physicalEnvironment.coordinateSystemModule "\"coordinateSystem\""
param *.*.mobility.coordinateSystemModule "\"coordinateSystem\""
param *.physicalEnvironment.config "xmldoc(\"obstacles.xml\")"
param *.radioMedium.obstacleLoss.typename "\"DielectricObstacleLoss\""
param *.host*.numApps 1
param **.hostA[*].app[*].count 1
param **.hostA[*].app[*].continuous true
param **.hostB[*].app[*].count 1
param **.hostB[*].app[*].continuous true
param **.hostC[*].app[*].count 1
param **.hostC[*].app[*].continuous true
param **.hostRouters[*].app[*].count 1
param **.hostRouters[*].app[*].continuous true
param **.host*.app[*].typename "\"PingApp\""
param **.hostRouters[0].app[*].destAddr "\"hostRouters[1] hostRouters[2]\""
param **.hostRouters[1].app[*].destAddr "\"hostRouters[0] hostRouters[2]\""
param **.hostRouters[2].app[*].destAddr "\"hostRouters[0] hostRouters[1]\""
param **.hostRouters[*].app[*].startTime uniform(10s,15s)
param **.hostRouters[*].app[*].printPing true
param **.hostA[*].app[*].destAddr "\"hostRouters[0] hostA[1] hostA[2] \""
param **.hostA[*].app[*].startTime uniform(5s,8s)
param **.hostA[*].app[*].printPing true
param **.hostB[*].app[*].destAddr "\"hostB[0] hostB[1] hostRouters[1]\""
param **.hostB[*].app[*].startTime uniform(5s,8s)
param **.hostB[*].app[*].printPing true
param **.hostC[*].app[*].destAddr "\"hostC[0] hostC[2] hostRouters[2]\""
param **.hostC[*].app[*].startTime uniform(5s,8s)
param **.hostC[*].app[*].printPing true
param **.host*.mobility.initFromDisplayString false
param **.host*.mobility.typename "\"MassMobility\""
param **.host*.osgModel "\"3d/drone.ive.100.scale.0,0,90.rot\""
param **.host*.mobility.initialMovementHeading "uniform(0deg, 360deg)"
param **.host*.mobility.initialMovementElevation "uniform(-90deg, 90deg)"
param **.host*.mobility.rotationAxisAngle uniform(-10deg,10deg)
param **.host*.mobility.faceForward false
param **.hostRouters[*].mobility.speed truncnormal(50mps,8mps)
param **.hostRouters[*].mobility.changeInterval "truncnormal(2s, 1s)"
param **.hostRouters[*].mobility.angleDelta "normal(-20deg, 20deg)"
param **.host*.mobility.speed "truncnormal(20mps, 4mps)"
param **.host*.mobility.changeInterval "truncnormal(3s, 1s)"
param **.host*.mobility.angleDelta "normal(-10deg, 10deg)"
param **.host*.mobility.initialZ 200m
param **.host*.mobility.constraintAreaMinZ 100m
param **.host*.mobility.constraintAreaMaxZ 300m
param **.hostRouters[0].mobility.initialX 700m
param **.hostRouters[0].mobility.initialY 700m
param **.hostRouters[0].mobility.constraintAreaMinX 575m
param **.hostRouters[0].mobility.constraintAreaMaxX 825m
param **.hostRouters[0].mobility.constraintAreaMinY 575m
param **.hostRouters[0].mobility.constraintAreaMaxY 825m
param **.hostA[*].mobility.constraintAreaMinX 600m
param **.hostA[*].mobility.constraintAreaMaxX 800m
param **.hostA[*].mobility.constraintAreaMinY 600m
param **.hostA[*].mobility.constraintAreaMaxY 800m
param **.hostRouters[1].mobility.initialX 950m
param **.hostRouters[1].mobility.initialY 450m
param **.hostRouters[1].mobility.constraintAreaMinX 825m
param **.hostRouters[1].mobility.constraintAreaMaxX 1075m
param **.hostRouters[1].mobility.constraintAreaMinY 325m
param **.hostRouters[1].mobility.constraintAreaMaxY 575m
param **.hostB[*].mobility.constraintAreaMinX 850m
param **.hostB[*].mobility.constraintAreaMaxX 1050m
param **.hostB[*].mobility.constraintAreaMinY 350m
param **.hostB[*].mobility.constraintAreaMaxY 550m
param **.hostRouters[2].mobility.initialX 950m
param **.hostRouters[2].mobility.initialY 950m
param **.hostRouters[2].mobility.constraintAreaMinX 825m
param **.hostRouters[2].mobility.constraintAreaMaxX 1075m
param **.hostRouters[2].mobility.constraintAreaMinY 825m
param **.hostRouters[2].mobility.constraintAreaMaxY 1075m
param **.hostC[*].mobility.constraintAreaMinX 850m
param **.hostC[*].mobility.constraintAreaMaxX 1050m
param **.hostC[*].mobility.constraintAreaMinY 850m
param **.hostC[*].mobility.constraintAreaMaxY 1050m

scalar UAVNetwork_Multi.radioMedium.propagation "Arrival computation count" 29810
scalar UAVNetwork_Multi.radioMedium.obstacleLoss "Obstacle loss intersection computation count" 89427
scalar UAVNetwork_Multi.radioMedium.obstacleLoss "Obstacle loss intersection count" 7699
scalar UAVNetwork_Multi.radioMedium "transmission count" 2710
scalar UAVNetwork_Multi.radioMedium "signal send count" 29810
scalar UAVNetwork_Multi.radioMedium "reception computation count" 29809
scalar UAVNetwork_Multi.radioMedium "interference computation count" 90516
scalar UAVNetwork_Multi.radioMedium "reception decision computation count" 15628
scalar UAVNetwork_Multi.radioMedium "listening decision computation count" 45251
scalar UAVNetwork_Multi.radioMedium "reception cache hit" 82.404953458035
attr unit %
scalar UAVNetwork_Multi.radioMedium "interference cache hit" 66.666666666667
attr unit %
scalar UAVNetwork_Multi.radioMedium "noise cache hit" 0
attr unit %
scalar UAVNetwork_Multi.radioMedium "snir cache hit" 50
attr unit %
scalar UAVNetwork_Multi.radioMedium "reception decision cache hit" 50
attr unit %
scalar UAVNetwork_Multi.radioMedium "reception result cache hit" 0
attr unit %
scalar UAVNetwork_Multi.hostA[0].lo[0].lo rcvdPkFromHl:count 0
attr interpolationmode none
attr source packetReceivedFromUpper
attr title "packets received from higher layer, count"
scalar UAVNetwork_Multi.hostA[0].lo[0].lo rcvdPkFromHl:sum(packetBytes) 0
attr interpolationmode none
attr source packetReceivedFromUpper
attr title "packets received from higher layer, sum(packetBytes)"
scalar UAVNetwork_Multi.hostA[0].lo[0].lo passedUpPk:count 0
attr interpolationmode none
attr source packetSentToUpper
attr title "packets passed to higher layer, count"
scalar UAVNetwork_Multi.hostA[0].lo[0].lo passedUpPk:sum(packetBytes) 0
attr interpolationmode none
attr source packetSentToUpper
attr title "packets passed to higher layer, sum(packetBytes)"
scalar UAVNetwork_Multi.hostA[0].wlan[0].mac numRetry 21
scalar UAVNetwork_Multi.hostA[0].wlan[0].mac numSentWithoutRetry 47
scalar UAVNetwork_Multi.hostA[0].wlan[0].mac numGivenUp 2
scalar UAVNetwork_Multi.hostA[0].wlan[0].mac numCollision 28
scalar UAVNetwork_Multi.hostA[0].wlan[0].mac numSent 52
scalar UAVNetwork_Multi.hostA[0].wlan[0].mac numReceived 49
scalar UAVNetwork_Multi.hostA[0].wlan[0].mac numSentBroadcast 37
scalar UAVNetwork_Multi.hostA[0].wlan[0].mac numReceivedBroadcast 157
scalar UAVNetwork_Multi.hostA[0].wlan[0].mac packetDropIncorrectlyReceived:count 28
attr interpolationmode none
attr source packetDropReasonIsIncorrectlyReceived(packetDropped)
attr title "packet drop: incorrectly received, count"
scalar UAVNetwork_Multi.hostA[0].wlan[0].mac packetDropIncorrectlyReceived:sum(packetBytes) 1816
attr interpolationmode none
attr source packetDropReasonIsIncorrectlyReceived(packetDropped)
attr title "packet drop: incorrectly received, sum(packetBytes)"
scalar UAVNetwork_Multi.hostA[0].wlan[0].mac packetDropNotAddressedToUs:count 640
attr interpolationmode none
attr source packetDropReasonIsNotAddressedToUs(packetDropped)
attr title "packet drop: not addressed to us, count"
scalar UAVNetwork_Multi.hostA[0].wlan[0].mac packetDropNotAddressedToUs:sum(packetBytes) 60080
attr interpolationmode none
attr source packetDropReasonIsNotAddressedToUs(packetDropped)
attr title "packet drop: not addressed to us, sum(packetBytes)"
scalar UAVNetwork_Multi.hostA[0].wlan[0].mac packetDropQueueOverflow:count 0
attr interpolationmode none
attr source packetDropReasonIsQueueOverflow(packetDropped)
attr title "packet drop: queue overflow, count"
scalar UAVNetwork_Multi.hostA[0].wlan[0].mac packetDropQueueOverflow:sum(packetBytes) 0
attr interpolationmode none
attr source packetDropReasonIsQueueOverflow(packetDropped)
attr title "packet drop: queue overflow, sum(packetBytes)"
scalar UAVNetwork_Multi.hostA[0].wlan[0].mac packetDropRetryLimitReached:count 2
attr interpolationmode none
attr source packetDropReasonIsRetryLimitReached(packetDropped)
attr title "packet drop: retry limit reached, count"
scalar UAVNetwork_Multi.hostA[0].wlan[0].mac packetDropRetryLimitReached:sum(packetBytes) 172
attr interpolationmode none
attr source packetDropReasonIsRetryLimitReached(packetDropped)
attr title "packet drop: retry limit reached, sum(packetBytes)"
scalar UAVNetwork_Multi.hostA[0].wlan[0].mac linkBroken:count 2
attr interpolationmode none
attr source linkBroken
attr title "link break, count"
statistic UAVNetwork_Multi.hostA[0].wlan[0].radio minSnir:histogram
field count 1363
field mean 49.979519581341
field stddev 156.26773441698
field min 0.47121636085225
field max 1603.3284990913
field sum 68122.085189368
field sqrsum 36664210.855233
attr source minimumSnir(packetSentToUpper)
attr title "Min SNIR, histogram"
bin	-inf	0
bin	0	872
bin	18	141
bin	36	113
bin	54	50
bin	72	33
bin	90	71
bin	108	7
bin	126	7
bin	144	3
bin	162	13
bin	180	7
bin	198	8
bin	216	1
bin	234	2
bin	252	0
bin	270	4
bin	288	0
bin	306	0
bin	324	0
bin	342	0
bin	360	1
bin	378	0
bin	396	0
bin	414	0
bin	432	2
bin	450	0
bin	468	0
bin	486	2
bin	504	0
bin	522	0
bin	540	0
bin	558	0
bin	576	0
bin	594	0
bin	612	0
bin	630	0
bin	648	0
bin	666	0
bin	684	0
bin	702	0
bin	720	2
bin	738	4
bin	756	0
bin	774	0
bin	792	0
bin	810	0
bin	828	0
bin	846	0
bin	864	0
bin	882	0
bin	900	0
bin	918	2
bin	936	1
bin	954	0
bin	972	2
bin	990	0
bin	1008	1
bin	1026	4
bin	1044	1
bin	1062	0
bin	1080	0
bin	1098	0
bin	1116	0
bin	1134	1
bin	1152	2
bin	1170	0
bin	1188	0
bin	1206	0
bin	1224	0
bin	1242	0
bin	1260	0
bin	1278	0
bin	1296	0
bin	1314	0
bin	1332	0
bin	1350	0
bin	1368	0
bin	1386	0
bin	1404	0
bin	1422	0
bin	1440	0
bin	1458	0
bin	1476	2
bin	1494	0
bin	1512	2
bin	1530	0
bin	1548	0
bin	1566	0
bin	1584	0
bin	1602	2
bin	1620	0
statistic UAVNetwork_Multi.hostA[0].wlan[0].radio packetErrorRate:histogram
field count 1363
field mean 0.0012055926808184
field stddev 0.020286453108604
field min 0
field max 0.46504990552022
field sum 1.6432228239554
field sqrsum 0.56249878219851
attr source packetErrorRate(packetSentToUpper)
attr title "Packet error rate, histogram"
bin	-inf	0
bin	0	1356
bin	0.008	1
bin	0.016	0
bin	0.024	0
bin	0.032	0
bin	0.04	0
bin	0.048	0
bin	0.056	0
bin	0.064	0
bin	0.072	0
bin	0.08	0
bin	0.088	0
bin	0.096	1
bin	0.104	0
bin	0.112	1
bin	0.12	0
bin	0.128	0
bin	0.136	0
bin	0.144	0
bin	0.152	0
bin	0.16	0
bin	0.168	0
bin	0.176	0
bin	0.184	0
bin	0.192	0
bin	0.2	1
bin	0.208	0
bin	0.216	0
bin	0.224	0
bin	0.232	0
bin	0.24	0
bin	0.248	0
bin	0.256	0
bin	0.264	0
bin	0.272	0
bin	0.28	0
bin	0.288	0
bin	0.296	0
bin	0.304	0
bin	0.312	0
bin	0.32	0
bin	0.328	0
bin	0.336	0
bin	0.344	0
bin	0.352	0
bin	0.36	0
bin	0.368	2
bin	0.376	0
bin	0.384	0
bin	0.392	0
bin	0.4	0
bin	0.408	0
bin	0.416	0
bin	0.424	0
bin	0.432	0
bin	0.44	0
bin	0.448	0
bin	0.456	0
bin	0.464	1
bin	0.472	0
statistic UAVNetwork_Multi.hostA[0].wlan[0].radio bitErrorRate:histogram
field count 1363
field mean 3.0900817451281e-006
field stddev 5.0665678672987e-005
field min 0
field max 0.0010706282110004
field sum 0.0042117814186096
field sqrsum 3.5092837246033e-006
attr source bitErrorRate(packetSentToUpper)
attr title "Bit error rate, histogram"
bin	-inf	0
bin	0	1357
bin	2e-005	0
bin	4e-005	0
bin	6e-005	0
bin	8e-005	0
bin	0.0001	0
bin	0.00012	0
bin	0.00014	0
bin	0.00016	0
bin	0.00018	1
bin	0.0002	0
bin	0.00022	0
bin	0.00024	0
bin	0.00026	0
bin	0.00028	0
bin	0.0003	0
bin	0.00032	0
bin	0.00034	0
bin	0.00036	0
bin	0.00038	1
bin	0.0004	0
bin	0.00042	0
bin	0.00044	0
bin	0.00046	0
bin	0.00048	0
bin	0.0005	0
bin	0.00052	0
bin	0.00054	0
bin	0.00056	0
bin	0.00058	0
bin	0.0006	0
bin	0.00062	0
bin	0.00064	0
bin	0.00066	0
bin	0.00068	0
bin	0.0007	0
bin	0.00072	0
bin	0.00074	0
bin	0.00076	0
bin	0.00078	0
bin	0.0008	0
bin	0.00082	0
bin	0.00084	3
bin	0.00086	0
bin	0.00088	0
bin	0.0009	0
bin	0.00092	0
bin	0.00094	0
bin	0.00096	0
bin	0.00098	0
bin	0.001	0
bin	0.00102	0
bin	0.00104	0
bin	0.00106	1
bin	0.00108	0
statistic UAVNetwork_Multi.hostA[0].wlan[0].radio symbolErrorRate:histogram
field count 1363
field mean 3.0900817451281e-006
field stddev 5.0665678672987e-005
field min 0
field max 0.0010706282110004
field sum 0.0042117814186096
field sqrsum 3.5092837246033e-006
attr source symbolErrorRate(packetSentToUpper)
attr title "Symbol error rate, histogram"
bin	-inf	0
bin	0	1357
bin	2e-005	0
bin	4e-005	0
bin	6e-005	0
bin	8e-005	0
bin	0.0001	0
bin	0.00012	0
bin	0.00014	0
bin	0.00016	0
bin	0.00018	1
bin	0.0002	0
bin	0.00022	0
bin	0.00024	0
bin	0.00026	0
bin	0.00028	0
bin	0.0003	0
bin	0.00032	0
bin	0.00034	0
bin	0.00036	0
bin	0.00038	1
bin	0.0004	0
bin	0.00042	0
bin	0.00044	0
bin	0.00046	0
bin	0.00048	0
bin	0.0005	0
bin	0.00052	0
bin	0.00054	0
bin	0.00056	0
bin	0.00058	0
bin	0.0006	0
bin	0.00062	0
bin	0.00064	0
bin	0.00066	0
bin	0.00068	0
bin	0.0007	0
bin	0.00072	0
bin	0.00074	0
bin	0.00076	0
bin	0.00078	0
bin	0.0008	0
bin	0.00082	0
bin	0.00084	3
bin	0.00086	0
bin	0.00088	0
bin	0.0009	0
bin	0.00092	0
bin	0.00094	0
bin	0.00096	0
bin	0.00098	0
bin	0.001	0
bin	0.00102	0
bin	0.00104	0
bin	0.00106	1
bin	0.00108	0
scalar UAVNetwork_Multi.hostA[0].wlan[0].radio transmissionState:count 646
attr interpolationmode sample-hold
attr source transmissionStateChanged
attr title "Radio transmission state, count"
scalar UAVNetwork_Multi.hostA[0].wlan[0].radio receptionState:count 3544
attr interpolationmode sample-hold
attr source receptionStateChanged
attr title "Radio reception state, count"
scalar UAVNetwork_Multi.hostA[0].wlan[0].radio radioMode:count 326
attr interpolationmode sample-hold
attr source radioModeChanged
attr title "Radio mode, count"
scalar UAVNetwork_Multi.hostA[0].ipv4.ip packetDropAddressResolutionFailed:count 0
attr interpolationmode none
attr source packetDropReasonIsAddressResolutionFailed(packetDropped)
attr title "packet drop: address resolution failed, count"
scalar UAVNetwork_Multi.hostA[0].ipv4.ip packetDropAddressResolutionFailed:sum(packetBytes) 0
attr interpolationmode none
attr source packetDropReasonIsAddressResolutionFailed(packetDropped)
attr title "packet drop: address resolution failed, sum(packetBytes)"
scalar UAVNetwork_Multi.hostA[0].ipv4.ip packetDropHopLimitReached:count 0
attr interpolationmode none
attr source packetDropReasonIsHopLimitReached(packetDropped)
attr title "packet drop: hop limit reached, count"
scalar UAVNetwork_Multi.hostA[0].ipv4.ip packetDropHopLimitReached:sum(packetBytes) 0
attr interpolationmode none
attr source packetDropReasonIsHopLimitReached(packetDropped)
attr title "packet drop: hop limit reached, sum(packetBytes)"
scalar UAVNetwork_Multi.hostA[0].ipv4.ip packetDropForwardingDisabled:count 2
attr interpolationmode none
attr source packetDropReasonIsForwardingDisabled(packetDropped)
attr title "packet drop: forwarding disabled, count"
scalar UAVNetwork_Multi.hostA[0].ipv4.ip packetDropForwardingDisabled:sum(packetBytes) 168
attr interpolationmode none
attr source packetDropReasonIsForwardingDisabled(packetDropped)
attr title "packet drop: forwarding disabled, sum(packetBytes)"
scalar UAVNetwork_Multi.hostA[0].ipv4.ip packetDropNoInterfaceFound:count 0
attr interpolationmode none
attr source packetDropReasonIsNoInterfaceFound(packetDropped)
attr title "packet drop: no interface found, count"
scalar UAVNetwork_Multi.hostA[0].ipv4.ip packetDropNoInterfaceFound:sum(packetBytes) 0
attr interpolationmode none
attr source packetDropReasonIsNoInterfaceFound(packetDropped)
attr title "packet drop: no interface found, sum(packetBytes)"
scalar UAVNetwork_Multi.hostA[0].ipv4.ip packetDropNoRouteFound:count 0
attr interpolationmode none
attr source packetDropReasonIsNoRouteFound(packetDropped)
attr title "packet drop: no route found, count"
scalar UAVNetwork_Multi.hostA[0].ipv4.ip packetDropNoRouteFound:sum(packetBytes) 0
attr interpolationmode none
attr source packetDropReasonIsNoRouteFound(packetDropped)
attr title "packet drop: no route found, sum(packetBytes)"
scalar UAVNetwork_Multi.hostA[0].ipv4.ip packetDropUndefined:count 0
attr interpolationmode none
attr source packetDropReasonIsUndefined(packetDropped)
attr title "packet drop: undefined, count"
scalar UAVNetwork_Multi.hostA[0].ipv4.ip packetDropUndefined:sum(packetBytes) 0
attr interpolationmode none
attr source packetDropReasonIsUndefined(packetDropped)
attr title "packet drop: undefined, sum(packetBytes)"
scalar UAVNetwork_Multi.hostA[0].udp packetReceived:count 0
attr interpolationmode none
attr source packetReceived
attr title "packets received, count"
scalar UAVNetwork_Multi.hostA[0].udp packetReceived:sum(packetBytes) 0
attr interpolationmode none
attr source packetReceived
attr title "packets received, sum(packetBytes)"
scalar UAVNetwork_Multi.hostA[0].udp packetSent:count 0
attr interpolationmode none
attr source packetSent
attr title "packets sent, count"
scalar UAVNetwork_Multi.hostA[0].udp packetSent:sum(packetBytes) 0
attr interpolationmode none
attr source packetSent
attr title "packets sent, sum(packetBytes)"
scalar UAVNetwork_Multi.hostA[0].udp passedUpPk:count 0
attr interpolationmode none
attr source packetSentToUpper
attr title "packets passed up, count"
scalar UAVNetwork_Multi.hostA[0].udp droppedPkWrongPort:count 0
attr interpolationmode none
attr source packetDropReasonIsNoPortFound(packetDropped)
attr title "packets dropped (wrong port), count"
scalar UAVNetwork_Multi.hostA[0].udp droppedPkBadChecksum:count 0
attr interpolationmode none
attr source packetDropReasonIsIncorrectlyReceived(packetDropped)
attr title "packets dropped (checksum error), count"
scalar UAVNetwork_Multi.hostA[0].app[0] "Pings sent" 44
scalar UAVNetwork_Multi.hostA[0].app[0] "ping loss rate (%)" 15.909090909091
scalar UAVNetwork_Multi.hostA[0].app[0] "ping out-of-order rate (%)" 0
scalar UAVNetwork_Multi.hostA[0].app[0] pingRxSeq:count 37
attr interpolationmode none
attr title "ping rx seq, count"
scalar UAVNetwork_Multi.hostA[0].app[0] pingTxSeq:count 44
attr interpolationmode none
attr title "ping tx seq, count"
scalar UAVNetwork_Multi.hostA[0].app[0] numOutOfOrderArrivals:last nan
attr interpolationmode none
attr title "ping out-of-order arrivals, last"
scalar UAVNetwork_Multi.hostA[0].app[0] numLost:last 6
attr interpolationmode none
attr title "pings lost, last"
statistic UAVNetwork_Multi.hostA[0].app[0] rtt:histogram
field count 37
field mean 0.0035900922738108
field stddev 0.0028078762897319
field min 0.00204486165
field max 0.013074695321
field sum 0.132833414131
field sqrsum 0.00076071430707939
attr interpolationmode none
attr title "ping round-trip time, histogram"
attr unit s
bin	-inf	0
bin	0	0
bin	0.0002	0
bin	0.0004	0
bin	0.0006	0
bin	0.0008	0
bin	0.001	0
bin	0.0012	0
bin	0.0014	0
bin	0.0016	0
bin	0.0018	0
bin	0.002	3
bin	0.0022	9
bin	0.0024	2
bin	0.0026	7
bin	0.0028	7
bin	0.003	4
bin	0.0032	0
bin	0.0034	0
bin	0.0036	0
bin	0.0038	0
bin	0.004	0
bin	0.0042	0
bin	0.0044	0
bin	0.0046	0
bin	0.0048	1
bin	0.005	0
bin	0.0052	0
bin	0.0054	0
bin	0.0056	0
bin	0.0058	0
bin	0.006	0
bin	0.0062	0
bin	0.0064	0
bin	0.0066	0
bin	0.0068	0
bin	0.007	1
bin	0.0072	0
bin	0.0074	0
bin	0.0076	0
bin	0.0078	0
bin	0.008	0
bin	0.0082	0
bin	0.0084	0
bin	0.0086	0
bin	0.0088	0
bin	0.009	0
bin	0.0092	0
bin	0.0094	0
bin	0.0096	0
bin	0.0098	0
bin	0.01	0
bin	0.0102	0
bin	0.0104	0
bin	0.0106	0
bin	0.0108	0
bin	0.011	0
bin	0.0112	0
bin	0.0114	0
bin	0.0116	0
bin	0.0118	1
bin	0.012	0
bin	0.0122	1
bin	0.0124	0
bin	0.0126	0
bin	0.0128	0
bin	0.013	1
bin	0.0132	0
bin	0.0134	0
bin	0.0136	0
bin	0.0138	0
bin	0.014	0
bin	0.0142	0
bin	0.0144	0
bin	0.0146	0
bin	0.0148	0
bin	0.015	0
bin	0.0152	0
bin	0.0154	0
bin	0.0156	0
bin	0.0158	0
bin	0.016	0
scalar UAVNetwork_Multi.hostA[1].lo[0].lo rcvdPkFromHl:count 28
attr interpolationmode none
attr source packetReceivedFromUpper
attr title "packets received from higher layer, count"
scalar UAVNetwork_Multi.hostA[1].lo[0].lo rcvdPkFromHl:sum(packetBytes) 2352
attr interpolationmode none
attr source packetReceivedFromUpper
attr title "packets received from higher layer, sum(packetBytes)"
scalar UAVNetwork_Multi.hostA[1].lo[0].lo passedUpPk:count 28
attr interpolationmode none
attr source packetSentToUpper
attr title "packets passed to higher layer, count"
scalar UAVNetwork_Multi.hostA[1].lo[0].lo passedUpPk:sum(packetBytes) 2352
attr interpolationmode none
attr source packetSentToUpper
attr title "packets passed to higher layer, sum(packetBytes)"
scalar UAVNetwork_Multi.hostA[1].wlan[0].mac numRetry 21
scalar UAVNetwork_Multi.hostA[1].wlan[0].mac numSentWithoutRetry 68
scalar UAVNetwork_Multi.hostA[1].wlan[0].mac numGivenUp 3
scalar UAVNetwork_Multi.hostA[1].wlan[0].mac numCollision 25
scalar UAVNetwork_Multi.hostA[1].wlan[0].mac numSent 68
scalar UAVNetwork_Multi.hostA[1].wlan[0].mac numReceived 80
scalar UAVNetwork_Multi.hostA[1].wlan[0].mac numSentBroadcast 38
scalar UAVNetwork_Multi.hostA[1].wlan[0].mac numReceivedBroadcast 153
scalar UAVNetwork_Multi.hostA[1].wlan[0].mac packetDropIncorrectlyReceived:count 25
attr interpolationmode none
attr source packetDropReasonIsIncorrectlyReceived(packetDropped)
attr title "packet drop: incorrectly received, count"
scalar UAVNetwork_Multi.hostA[1].wlan[0].mac packetDropIncorrectlyReceived:sum(packetBytes) 1691
attr interpolationmode none
attr source packetDropReasonIsIncorrectlyReceived(packetDropped)
attr title "packet drop: incorrectly received, sum(packetBytes)"
scalar UAVNetwork_Multi.hostA[1].wlan[0].mac packetDropNotAddressedToUs:count 614
attr interpolationmode none
attr source packetDropReasonIsNotAddressedToUs(packetDropped)
attr title "packet drop: not addressed to us, count"
scalar UAVNetwork_Multi.hostA[1].wlan[0].mac packetDropNotAddressedToUs:sum(packetBytes) 57628
attr interpolationmode none
attr source packetDropReasonIsNotAddressedToUs(packetDropped)
attr title "packet drop: not addressed to us, sum(packetBytes)"
scalar UAVNetwork_Multi.hostA[1].wlan[0].mac packetDropQueueOverflow:count 0
attr interpolationmode none
attr source packetDropReasonIsQueueOverflow(packetDropped)
attr title "packet drop: queue overflow, count"
scalar UAVNetwork_Multi.hostA[1].wlan[0].mac packetDropQueueOverflow:sum(packetBytes) 0
attr interpolationmode none
attr source packetDropReasonIsQueueOverflow(packetDropped)
attr title "packet drop: queue overflow, sum(packetBytes)"
scalar UAVNetwork_Multi.hostA[1].wlan[0].mac packetDropRetryLimitReached:count 3
attr interpolationmode none
attr source packetDropReasonIsRetryLimitReached(packetDropped)
attr title "packet drop: retry limit reached, count"
scalar UAVNetwork_Multi.hostA[1].wlan[0].mac packetDropRetryLimitReached:sum(packetBytes) 204
attr interpolationmode none
attr source packetDropReasonIsRetryLimitReached(packetDropped)
attr title "packet drop: retry limit reached, sum(packetBytes)"
scalar UAVNetwork_Multi.hostA[1].wlan[0].mac linkBroken:count 3
attr interpolationmode none
attr source linkBroken
attr title "link break, count"
statistic UAVNetwork_Multi.hostA[1].wlan[0].radio minSnir:histogram
field count 1351
field mean 25.181541620232
field stddev 40.445178066432
field min 0.070319073484658
field max 433.33329890323
field sum 34020.262728933
field sqrsum 3065029.4407542
attr source minimumSnir(packetSentToUpper)
attr title "Min SNIR, histogram"
bin	-inf	0
bin	0	622
bin	10	307
bin	20	117
bin	30	62
bin	40	59
bin	50	32
bin	60	34
bin	70	15
bin	80	4
bin	90	37
bin	100	10
bin	110	12
bin	120	7
bin	130	13
bin	140	2
bin	150	1
bin	160	1
bin	170	6
bin	180	0
bin	190	0
bin	200	2
bin	210	0
bin	220	0
bin	230	0
bin	240	2
bin	250	0
bin	260	0
bin	270	0
bin	280	0
bin	290	1
bin	300	0
bin	310	0
bin	320	0
bin	330	0
bin	340	0
bin	350	0
bin	360	0
bin	370	0
bin	380	0
bin	390	2
bin	400	0
bin	410	0
bin	420	2
bin	430	1
bin	440	0
bin	450	0
bin	460	0
bin	470	0
bin	480	0
bin	490	0
bin	500	0
bin	510	0
bin	520	0
bin	530	0
bin	540	0
bin	550	0
statistic UAVNetwork_Multi.hostA[1].wlan[0].radio packetErrorRate:histogram
field count 1351
field mean 0.00303994797684
field stddev 0.051403394193201
field min 0
field max 1
field sum 4.1069697167108
field sqrsum 3.5796020359665
attr source packetErrorRate(packetSentToUpper)
attr title "Packet error rate, histogram"
bin	-inf	0
bin	0	1345
bin	0.02	0
bin	0.04	0
bin	0.06	0
bin	0.08	0
bin	0.1	0
bin	0.12	0
bin	0.14	0
bin	0.16	0
bin	0.18	1
bin	0.2	1
bin	0.22	0
bin	0.24	0
bin	0.26	0
bin	0.28	0
bin	0.3	0
bin	0.32	0
bin	0.34	0
bin	0.36	0
bin	0.38	0
bin	0.4	0
bin	0.42	0
bin	0.44	0
bin	0.46	0
bin	0.48	0
bin	0.5	0
bin	0.52	0
bin	0.54	0
bin	0.56	0
bin	0.58	0
bin	0.6	0
bin	0.62	0
bin	0.64	0
bin	0.66	0
bin	0.68	0
bin	0.7	1
bin	0.72	0
bin	0.74	0
bin	0.76	0
bin	0.78	0
bin	0.8	0
bin	0.82	0
bin	0.84	0
bin	0.86	0
bin	0.88	0
bin	0.9	0
bin	0.92	0
bin	0.94	0
bin	0.96	0
bin	0.98	2
bin	1	1
bin	1.02	0
statistic UAVNetwork_Multi.hostA[1].wlan[0].radio bitErrorRate:histogram
field count 1351
field mean 0.00011344545459307
field stddev 0.0032691939216731
field min 0
field max 0.1178290099262
field sum 0.15326480915524
field sqrsum 0.014445686207578
attr source bitErrorRate(packetSentToUpper)
attr title "Bit error rate, histogram"
bin	-inf	0
bin	0	1347
bin	0.002	1
bin	0.004	0
bin	0.006	0
bin	0.008	1
bin	0.01	0
bin	0.012	0
bin	0.014	0
bin	0.016	0
bin	0.018	0
bin	0.02	1
bin	0.022	0
bin	0.024	0
bin	0.026	0
bin	0.028	0
bin	0.03	0
bin	0.032	0
bin	0.034	0
bin	0.036	0
bin	0.038	0
bin	0.04	0
bin	0.042	0
bin	0.044	0
bin	0.046	0
bin	0.048	0
bin	0.05	0
bin	0.052	0
bin	0.054	0
bin	0.056	0
bin	0.058	0
bin	0.06	0
bin	0.062	0
bin	0.064	0
bin	0.066	0
bin	0.068	0
bin	0.07	0
bin	0.072	0
bin	0.074	0
bin	0.076	0
bin	0.078	0
bin	0.08	0
bin	0.082	0
bin	0.084	0
bin	0.086	0
bin	0.088	0
bin	0.09	0
bin	0.092	0
bin	0.094	0
bin	0.096	0
bin	0.098	0
bin	0.1	0
bin	0.102	0
bin	0.104	0
bin	0.106	0
bin	0.108	0
bin	0.11	0
bin	0.112	0
bin	0.114	0
bin	0.116	1
bin	0.118	0
statistic UAVNetwork_Multi.hostA[1].wlan[0].radio symbolErrorRate:histogram
field count 1351
field mean 0.00011344545459307
field stddev 0.0032691939216731
field min 0
field max 0.1178290099262
field sum 0.15326480915524
field sqrsum 0.014445686207578
attr source symbolErrorRate(packetSentToUpper)
attr title "Symbol error rate, histogram"
bin	-inf	0
bin	0	1347
bin	0.002	1
bin	0.004	0
bin	0.006	0
bin	0.008	1
bin	0.01	0
bin	0.012	0
bin	0.014	0
bin	0.016	0
bin	0.018	0
bin	0.02	1
bin	0.022	0
bin	0.024	0
bin	0.026	0
bin	0.028	0
bin	0.03	0
bin	0.032	0
bin	0.034	0
bin	0.036	0
bin	0.038	0
bin	0.04	0
bin	0.042	0
bin	0.044	0
bin	0.046	0
bin	0.048	0
bin	0.05	0
bin	0.052	0
bin	0.054	0
bin	0.056	0
bin	0.058	0
bin	0.06	0
bin	0.062	0
bin	0.064	0
bin	0.066	0
bin	0.068	0
bin	0.07	0
bin	0.072	0
bin	0.074	0
bin	0.076	0
bin	0.078	0
bin	0.08	0
bin	0.082	0
bin	0.084	0
bin	0.086	0
bin	0.088	0
bin	0.09	0
bin	0.092	0
bin	0.094	0
bin	0.096	0
bin	0.098	0
bin	0.1	0
bin	0.102	0
bin	0.104	0
bin	0.106	0
bin	0.108	0
bin	0.11	0
bin	0.112	0
bin	0.114	0
bin	0.116	1
bin	0.118	0
scalar UAVNetwork_Multi.hostA[1].wlan[0].radio transmissionState:count 840
attr interpolationmode sample-hold
attr source transmissionStateChanged
attr title "Radio transmission state, count"
scalar UAVNetwork_Multi.hostA[1].wlan[0].radio receptionState:count 3772
attr interpolationmode sample-hold
attr source receptionStateChanged
attr title "Radio reception state, count"
scalar UAVNetwork_Multi.hostA[1].wlan[0].radio radioMode:count 423
attr interpolationmode sample-hold
attr source radioModeChanged
attr title "Radio mode, count"
scalar UAVNetwork_Multi.hostA[1].ipv4.ip packetDropAddressResolutionFailed:count 0
attr interpolationmode none
attr source packetDropReasonIsAddressResolutionFailed(packetDropped)
attr title "packet drop: address resolution failed, count"
scalar UAVNetwork_Multi.hostA[1].ipv4.ip packetDropAddressResolutionFailed:sum(packetBytes) 0
attr interpolationmode none
attr source packetDropReasonIsAddressResolutionFailed(packetDropped)
attr title "packet drop: address resolution failed, sum(packetBytes)"
scalar UAVNetwork_Multi.hostA[1].ipv4.ip packetDropHopLimitReached:count 0
attr interpolationmode none
attr source packetDropReasonIsHopLimitReached(packetDropped)
attr title "packet drop: hop limit reached, count"
scalar UAVNetwork_Multi.hostA[1].ipv4.ip packetDropHopLimitReached:sum(packetBytes) 0
attr interpolationmode none
attr source packetDropReasonIsHopLimitReached(packetDropped)
attr title "packet drop: hop limit reached, sum(packetBytes)"
scalar UAVNetwork_Multi.hostA[1].ipv4.ip packetDropForwardingDisabled:count 3
attr interpolationmode none
attr source packetDropReasonIsForwardingDisabled(packetDropped)
attr title "packet drop: forwarding disabled, count"
scalar UAVNetwork_Multi.hostA[1].ipv4.ip packetDropForwardingDisabled:sum(packetBytes) 252
attr interpolationmode none
attr source packetDropReasonIsForwardingDisabled(packetDropped)
attr title "packet drop: forwarding disabled, sum(packetBytes)"
scalar UAVNetwork_Multi.hostA[1].ipv4.ip packetDropNoInterfaceFound:count 0
attr interpolationmode none
attr source packetDropReasonIsNoInterfaceFound(packetDropped)
attr title "packet drop: no interface found, count"
scalar UAVNetwork_Multi.hostA[1].ipv4.ip packetDropNoInterfaceFound:sum(packetBytes) 0
attr interpolationmode none
attr source packetDropReasonIsNoInterfaceFound(packetDropped)
attr title "packet drop: no interface found, sum(packetBytes)"
scalar UAVNetwork_Multi.hostA[1].ipv4.ip packetDropNoRouteFound:count 0
attr interpolationmode none
attr source packetDropReasonIsNoRouteFound(packetDropped)
attr title "packet drop: no route found, count"
scalar UAVNetwork_Multi.hostA[1].ipv4.ip packetDropNoRouteFound:sum(packetBytes) 0
attr interpolationmode none
attr source packetDropReasonIsNoRouteFound(packetDropped)
attr title "packet drop: no route found, sum(packetBytes)"
scalar UAVNetwork_Multi.hostA[1].ipv4.ip packetDropUndefined:count 0
attr interpolationmode none
attr source packetDropReasonIsUndefined(packetDropped)
attr title "packet drop: undefined, count"
scalar UAVNetwork_Multi.hostA[1].ipv4.ip packetDropUndefined:sum(packetBytes) 0
attr interpolationmode none
attr source packetDropReasonIsUndefined(packetDropped)
attr title "packet drop: undefined, sum(packetBytes)"
scalar UAVNetwork_Multi.hostA[1].udp packetReceived:count 0
attr interpolationmode none
attr source packetReceived
attr title "packets received, count"
scalar UAVNetwork_Multi.hostA[1].udp packetReceived:sum(packetBytes) 0
attr interpolationmode none
attr source packetReceived
attr title "packets received, sum(packetBytes)"
scalar UAVNetwork_Multi.hostA[1].udp packetSent:count 0
attr interpolationmode none
attr source packetSent
attr title "packets sent, count"
scalar UAVNetwork_Multi.hostA[1].udp packetSent:sum(packetBytes) 0
attr interpolationmode none
attr source packetSent
attr title "packets sent, sum(packetBytes)"
scalar UAVNetwork_Multi.hostA[1].udp passedUpPk:count 0
attr interpolationmode none
attr source packetSentToUpper
attr title "packets passed up, count"
scalar UAVNetwork_Multi.hostA[1].udp droppedPkWrongPort:count 0
attr interpolationmode none
attr source packetDropReasonIsNoPortFound(packetDropped)
attr title "packets dropped (wrong port), count"
scalar UAVNetwork_Multi.hostA[1].udp droppedPkBadChecksum:count 0
attr interpolationmode none
attr source packetDropReasonIsIncorrectlyReceived(packetDropped)
attr title "packets dropped (checksum error), count"
scalar UAVNetwork_Multi.hostA[1].app[0] "Pings sent" 43
scalar UAVNetwork_Multi.hostA[1].app[0] "ping loss rate (%)" 2.3255813953488
scalar UAVNetwork_Multi.hostA[1].app[0] "ping out-of-order rate (%)" 4.6511627906977
scalar UAVNetwork_Multi.hostA[1].app[0] pingRxSeq:count 43
attr interpolationmode none
attr title "ping rx seq, count"
scalar UAVNetwork_Multi.hostA[1].app[0] pingTxSeq:count 43
attr interpolationmode none
attr title "ping tx seq, count"
scalar UAVNetwork_Multi.hostA[1].app[0] numOutOfOrderArrivals:last 2
attr interpolationmode none
attr title "ping out-of-order arrivals, last"
scalar UAVNetwork_Multi.hostA[1].app[0] numLost:last 1
attr interpolationmode none
attr title "pings lost, last"
statistic UAVNetwork_Multi.hostA[1].app[0] rtt:histogram
field count 28
field mean 0.055586969047821
field stddev 0.27756634570985
field min 0.002225476534
field max 1.471863383651
field sum 1.556435133339
field sqrsum 2.1666805708913
attr interpolationmode none
attr title "ping round-trip time, histogram"
attr unit s
bin	-inf	0
bin	0	27
bin	0.02	0
bin	0.04	0
bin	0.06	0
bin	0.08	0
bin	0.1	0
bin	0.12	0
bin	0.14	0
bin	0.16	0
bin	0.18	0
bin	0.2	0
bin	0.22	0
bin	0.24	0
bin	0.26	0
bin	0.28	0
bin	0.3	0
bin	0.32	0
bin	0.34	0
bin	0.36	0
bin	0.38	0
bin	0.4	0
bin	0.42	0
bin	0.44	0
bin	0.46	0
bin	0.48	0
bin	0.5	0
bin	0.52	0
bin	0.54	0
bin	0.56	0
bin	0.58	0
bin	0.6	0
bin	0.62	0
bin	0.64	0
bin	0.66	0
bin	0.68	0
bin	0.7	0
bin	0.72	0
bin	0.74	0
bin	0.76	0
bin	0.78	0
bin	0.8	0
bin	0.82	0
bin	0.84	0
bin	0.86	0
bin	0.88	0
bin	0.9	0
bin	0.92	0
bin	0.94	0
bin	0.96	0
bin	0.98	0
bin	1	0
bin	1.02	0
bin	1.04	0
bin	1.06	0
bin	1.08	0
bin	1.1	0
bin	1.12	0
bin	1.14	0
bin	1.16	0
bin	1.18	0
bin	1.2	0
bin	1.22	0
bin	1.24	0
bin	1.26	0
bin	1.28	0
bin	1.3	0
bin	1.32	0
bin	1.34	0
bin	1.36	0
bin	1.38	0
bin	1.4	0
bin	1.42	0
bin	1.44	0
bin	1.46	1
bin	1.48	0
bin	1.5	0
bin	1.52	0
bin	1.54	0
bin	1.56	0
bin	1.58	0
bin	1.6	0
bin	1.62	0
bin	1.64	0
bin	1.66	0
bin	1.68	0
bin	1.7	0
bin	1.72	0
bin	1.74	0
bin	1.76	0
bin	1.78	0
bin	1.8	0
bin	1.82	0
bin	1.84	0
scalar UAVNetwork_Multi.hostA[2].lo[0].lo rcvdPkFromHl:count 28
attr interpolationmode none
attr source packetReceivedFromUpper
attr title "packets received from higher layer, count"
scalar UAVNetwork_Multi.hostA[2].lo[0].lo rcvdPkFromHl:sum(packetBytes) 2352
attr interpolationmode none
attr source packetReceivedFromUpper
attr title "packets received from higher layer, sum(packetBytes)"
scalar UAVNetwork_Multi.hostA[2].lo[0].lo passedUpPk:count 28
attr interpolationmode none
attr source packetSentToUpper
attr title "packets passed to higher layer, count"
scalar UAVNetwork_Multi.hostA[2].lo[0].lo passedUpPk:sum(packetBytes) 2352
attr interpolationmode none
attr source packetSentToUpper
attr title "packets passed to higher layer, sum(packetBytes)"
scalar UAVNetwork_Multi.hostA[2].wlan[0].mac numRetry 52
scalar UAVNetwork_Multi.hostA[2].wlan[0].mac numSentWithoutRetry 64
scalar UAVNetwork_Multi.hostA[2].wlan[0].mac numGivenUp 6
scalar UAVNetwork_Multi.hostA[2].wlan[0].mac numCollision 38
scalar UAVNetwork_Multi.hostA[2].wlan[0].mac numSent 66
scalar UAVNetwork_Multi.hostA[2].wlan[0].mac numReceived 79
scalar UAVNetwork_Multi.hostA[2].wlan[0].mac numSentBroadcast 41
scalar UAVNetwork_Multi.hostA[2].wlan[0].mac numReceivedBroadcast 142
scalar UAVNetwork_Multi.hostA[2].wlan[0].mac packetDropIncorrectlyReceived:count 38
attr interpolationmode none
attr source packetDropReasonIsIncorrectlyReceived(packetDropped)
attr title "packet drop: incorrectly received, count"
scalar UAVNetwork_Multi.hostA[2].wlan[0].mac packetDropIncorrectlyReceived:sum(packetBytes) 2800
attr interpolationmode none
attr source packetDropReasonIsIncorrectlyReceived(packetDropped)
attr title "packet drop: incorrectly received, sum(packetBytes)"
scalar UAVNetwork_Multi.hostA[2].wlan[0].mac packetDropNotAddressedToUs:count 533
attr interpolationmode none
attr source packetDropReasonIsNotAddressedToUs(packetDropped)
attr title "packet drop: not addressed to us, count"
scalar UAVNetwork_Multi.hostA[2].wlan[0].mac packetDropNotAddressedToUs:sum(packetBytes) 50152
attr interpolationmode none
attr source packetDropReasonIsNotAddressedToUs(packetDropped)
attr title "packet drop: not addressed to us, sum(packetBytes)"
scalar UAVNetwork_Multi.hostA[2].wlan[0].mac packetDropQueueOverflow:count 0
attr interpolationmode none
attr source packetDropReasonIsQueueOverflow(packetDropped)
attr title "packet drop: queue overflow, count"
scalar UAVNetwork_Multi.hostA[2].wlan[0].mac packetDropQueueOverflow:sum(packetBytes) 0
attr interpolationmode none
attr source packetDropReasonIsQueueOverflow(packetDropped)
attr title "packet drop: queue overflow, sum(packetBytes)"
scalar UAVNetwork_Multi.hostA[2].wlan[0].mac packetDropRetryLimitReached:count 6
attr interpolationmode none
attr source packetDropReasonIsRetryLimitReached(packetDropped)
attr title "packet drop: retry limit reached, count"
scalar UAVNetwork_Multi.hostA[2].wlan[0].mac packetDropRetryLimitReached:sum(packetBytes) 480
attr interpolationmode none
attr source packetDropReasonIsRetryLimitReached(packetDropped)
attr title "packet drop: retry limit reached, sum(packetBytes)"
scalar UAVNetwork_Multi.hostA[2].wlan[0].mac linkBroken:count 6
attr interpolationmode none
attr source linkBroken
attr title "link break, count"
statistic UAVNetwork_Multi.hostA[2].wlan[0].radio minSnir:histogram
field count 1239
field mean 66.445184179089
field stddev 228.69239332421
field min 0.0032054742973204
field max 1325.9554961176
field sum 82325.583197891
field sqrsum 70217799.464506
attr source minimumSnir(packetSentToUpper)
attr title "Min SNIR, histogram"
bin	-inf	0
bin	0	980
bin	24	75
bin	48	51
bin	72	37
bin	96	13
bin	120	10
bin	144	6
bin	168	6
bin	192	4
bin	216	0
bin	240	2
bin	264	0
bin	288	0
bin	312	0
bin	336	2
bin	360	0
bin	384	2
bin	408	2
bin	432	0
bin	456	2
bin	480	0
bin	504	0
bin	528	1
bin	552	0
bin	576	0
bin	600	0
bin	624	0
bin	648	0
bin	672	0
bin	696	0
bin	720	0
bin	744	0
bin	768	0
bin	792	0
bin	816	0
bin	840	0
bin	864	0
bin	888	0
bin	912	0
bin	936	0
bin	960	0
bin	984	0
bin	1008	0
bin	1032	0
bin	1056	0
bin	1080	3
bin	1104	6
bin	1128	1
bin	1152	5
bin	1176	1
bin	1200	7
bin	1224	17
bin	1248	4
bin	1272	0
bin	1296	0
bin	1320	2
bin	1344	0
statistic UAVNetwork_Multi.hostA[2].wlan[0].radio packetErrorRate:histogram
field count 1239
field mean 0.0028296743117375
field stddev 0.044298831823309
field min 0
field max 1
field sum 3.5059664722427
field sqrsum 2.4393552313906
attr source packetErrorRate(packetSentToUpper)
attr title "Packet error rate, histogram"
bin	-inf	0
bin	0	1229
bin	0.02	1
bin	0.04	3
bin	0.06	0
bin	0.08	0
bin	0.1	0
bin	0.12	0
bin	0.14	0
bin	0.16	0
bin	0.18	0
bin	0.2	0
bin	0.22	0
bin	0.24	1
bin	0.26	1
bin	0.28	0
bin	0.3	1
bin	0.32	0
bin	0.34	0
bin	0.36	0
bin	0.38	0
bin	0.4	0
bin	0.42	0
bin	0.44	1
bin	0.46	0
bin	0.48	0
bin	0.5	0
bin	0.52	0
bin	0.54	0
bin	0.56	0
bin	0.58	0
bin	0.6	0
bin	0.62	0
bin	0.64	0
bin	0.66	0
bin	0.68	0
bin	0.7	0
bin	0.72	0
bin	0.74	0
bin	0.76	0
bin	0.78	0
bin	0.8	0
bin	0.82	0
bin	0.84	0
bin	0.86	0
bin	0.88	0
bin	0.9	0
bin	0.92	0
bin	0.94	0
bin	0.96	0
bin	0.98	1
bin	1	1
bin	1.02	0
bin	1.04	0
bin	1.06	0
bin	1.08	0
bin	1.1	0
bin	1.12	0
bin	1.14	0
bin	1.16	0
bin	1.18	0
bin	1.2	0
bin	1.22	0
bin	1.24	0
bin	1.26	0
statistic UAVNetwork_Multi.hostA[2].wlan[0].radio bitErrorRate:histogram
field count 1239
field mean 0.00033299579867051
field stddev 0.011368453634074
field min 0
field max 0.40005740856256
field sum 0.41258179455277
field sqrsum 0.16013865968546
attr source bitErrorRate(packetSentToUpper)
attr title "Bit error rate, histogram"
bin	-inf	0
bin	0	1237
bin	0.0068	1
bin	0.0136	0
bin	0.0204	0
bin	0.0272	0
bin	0.034	0
bin	0.0408	0
bin	0.0476	0
bin	0.0544	0
bin	0.0612	0
bin	0.068	0
bin	0.0748	0
bin	0.0816	0
bin	0.0884	0
bin	0.0952	0
bin	0.102	0
bin	0.1088	0
bin	0.1156	0
bin	0.1224	0
bin	0.1292	0
bin	0.136	0
bin	0.1428	0
bin	0.1496	0
bin	0.1564	0
bin	0.1632	0
bin	0.17	0
bin	0.1768	0
bin	0.1836	0
bin	0.1904	0
bin	0.1972	0
bin	0.204	0
bin	0.2108	0
bin	0.2176	0
bin	0.2244	0
bin	0.2312	0
bin	0.238	0
bin	0.2448	0
bin	0.2516	0
bin	0.2584	0
bin	0.2652	0
bin	0.272	0
bin	0.2788	0
bin	0.2856	0
bin	0.2924	0
bin	0.2992	0
bin	0.306	0
bin	0.3128	0
bin	0.3196	0
bin	0.3264	0
bin	0.3332	0
bin	0.34	0
bin	0.3468	0
bin	0.3536	0
bin	0.3604	0
bin	0.3672	0
bin	0.374	0
bin	0.3808	0
bin	0.3876	0
bin	0.3944	1
bin	0.4012	0
statistic UAVNetwork_Multi.hostA[2].wlan[0].radio symbolErrorRate:histogram
field count 1239
field mean 0.00033299579867051
field stddev 0.011368453634074
field min 0
field max 0.40005740856256
field sum 0.41258179455277
field sqrsum 0.16013865968546
attr source symbolErrorRate(packetSentToUpper)
attr title "Symbol error rate, histogram"
bin	-inf	0
bin	0	1237
bin	0.0068	1
bin	0.0136	0
bin	0.0204	0
bin	0.0272	0
bin	0.034	0
bin	0.0408	0
bin	0.0476	0
bin	0.0544	0
bin	0.0612	0
bin	0.068	0
bin	0.0748	0
bin	0.0816	0
bin	0.0884	0
bin	0.0952	0
bin	0.102	0
bin	0.1088	0
bin	0.1156	0
bin	0.1224	0
bin	0.1292	0
bin	0.136	0
bin	0.1428	0
bin	0.1496	0
bin	0.1564	0
bin	0.1632	0
bin	0.17	0
bin	0.1768	0
bin	0.1836	0
bin	0.1904	0
bin	0.1972	0
bin	0.204	0
bin	0.2108	0
bin	0.2176	0
bin	0.2244	0
bin	0.2312	0
bin	0.238	0
bin	0.2448	0
bin	0.2516	0
bin	0.2584	0
bin	0.2652	0
bin	0.272	0
bin	0.2788	0
bin	0.2856	0
bin	0.2924	0
bin	0.2992	0
bin	0.306	0
bin	0.3128	0
bin	0.3196	0
bin	0.3264	0
bin	0.3332	0
bin	0.34	0
bin	0.3468	0
bin	0.3536	0
bin	0.3604	0
bin	0.3672	0
bin	0.374	0
bin	0.3808	0
bin	0.3876	0
bin	0.3944	1
bin	0.4012	0
scalar UAVNetwork_Multi.hostA[2].wlan[0].radio transmissionState:count 976
attr interpolationmode sample-hold
attr source transmissionStateChanged
attr title "Radio transmission state, count"
scalar UAVNetwork_Multi.hostA[2].wlan[0].radio receptionState:count 3673
attr interpolationmode sample-hold
attr source receptionStateChanged
attr title "Radio reception state, count"
scalar UAVNetwork_Multi.hostA[2].wlan[0].radio radioMode:count 491
attr interpolationmode sample-hold
attr source radioModeChanged
attr title "Radio mode, count"
scalar UAVNetwork_Multi.hostA[2].ipv4.ip packetDropAddressResolutionFailed:count 0
attr interpolationmode none
attr source packetDropReasonIsAddressResolutionFailed(packetDropped)
attr title "packet drop: address resolution failed, count"
scalar UAVNetwork_Multi.hostA[2].ipv4.ip packetDropAddressResolutionFailed:sum(packetBytes) 0
attr interpolationmode none
attr source packetDropReasonIsAddressResolutionFailed(packetDropped)
attr title "packet drop: address resolution failed, sum(packetBytes)"
scalar UAVNetwork_Multi.hostA[2].ipv4.ip packetDropHopLimitReached:count 0
attr interpolationmode none
attr source packetDropReasonIsHopLimitReached(packetDropped)
attr title "packet drop: hop limit reached, count"
scalar UAVNetwork_Multi.hostA[2].ipv4.ip packetDropHopLimitReached:sum(packetBytes) 0
attr interpolationmode none
attr source packetDropReasonIsHopLimitReached(packetDropped)
attr title "packet drop: hop limit reached, sum(packetBytes)"
scalar UAVNetwork_Multi.hostA[2].ipv4.ip packetDropForwardingDisabled:count 10
attr interpolationmode none
attr source packetDropReasonIsForwardingDisabled(packetDropped)
attr title "packet drop: forwarding disabled, count"
scalar UAVNetwork_Multi.hostA[2].ipv4.ip packetDropForwardingDisabled:sum(packetBytes) 840
attr interpolationmode none
attr source packetDropReasonIsForwardingDisabled(packetDropped)
attr title "packet drop: forwarding disabled, sum(packetBytes)"
scalar UAVNetwork_Multi.hostA[2].ipv4.ip packetDropNoInterfaceFound:count 0
attr interpolationmode none
attr source packetDropReasonIsNoInterfaceFound(packetDropped)
attr title "packet drop: no interface found, count"
scalar UAVNetwork_Multi.hostA[2].ipv4.ip packetDropNoInterfaceFound:sum(packetBytes) 0
attr interpolationmode none
attr source packetDropReasonIsNoInterfaceFound(packetDropped)
attr title "packet drop: no interface found, sum(packetBytes)"
scalar UAVNetwork_Multi.hostA[2].ipv4.ip packetDropNoRouteFound:count 0
attr interpolationmode none
attr source packetDropReasonIsNoRouteFound(packetDropped)
attr title "packet drop: no route found, count"
scalar UAVNetwork_Multi.hostA[2].ipv4.ip packetDropNoRouteFound:sum(packetBytes) 0
attr interpolationmode none
attr source packetDropReasonIsNoRouteFound(packetDropped)
attr title "packet drop: no route found, sum(packetBytes)"
scalar UAVNetwork_Multi.hostA[2].ipv4.ip packetDropUndefined:count 0
attr interpolationmode none
attr source packetDropReasonIsUndefined(packetDropped)
attr title "packet drop: undefined, count"
scalar UAVNetwork_Multi.hostA[2].ipv4.ip packetDropUndefined:sum(packetBytes) 0
attr interpolationmode none
attr source packetDropReasonIsUndefined(packetDropped)
attr title "packet drop: undefined, sum(packetBytes)"
scalar UAVNetwork_Multi.hostA[2].udp packetReceived:count 0
attr interpolationmode none
attr source packetReceived
attr title "packets received, count"
scalar UAVNetwork_Multi.hostA[2].udp packetReceived:sum(packetBytes) 0
attr interpolationmode none
attr source packetReceived
attr title "packets received, sum(packetBytes)"
scalar UAVNetwork_Multi.hostA[2].udp packetSent:count 0
attr interpolationmode none
attr source packetSent
attr title "packets sent, count"
scalar UAVNetwork_Multi.hostA[2].udp packetSent:sum(packetBytes) 0
attr interpolationmode none
attr source packetSent
attr title "packets sent, sum(packetBytes)"
scalar UAVNetwork_Multi.hostA[2].udp passedUpPk:count 0
attr interpolationmode none
attr source packetSentToUpper
attr title "packets passed up, count"
scalar UAVNetwork_Multi.hostA[2].udp droppedPkWrongPort:count 0
attr interpolationmode none
attr source packetDropReasonIsNoPortFound(packetDropped)
attr title "packets dropped (wrong port), count"
scalar UAVNetwork_Multi.hostA[2].udp droppedPkBadChecksum:count 0
attr interpolationmode none
attr source packetDropReasonIsIncorrectlyReceived(packetDropped)
attr title "packets dropped (checksum error), count"
scalar UAVNetwork_Multi.hostA[2].app[0] "Pings sent" 43
scalar UAVNetwork_Multi.hostA[2].app[0] "ping loss rate (%)" 6.9767441860465
scalar UAVNetwork_Multi.hostA[2].app[0] "ping out-of-order rate (%)" 2.3255813953488
scalar UAVNetwork_Multi.hostA[2].app[0] pingRxSeq:count 41
attr interpolationmode none
attr title "ping rx seq, count"
scalar UAVNetwork_Multi.hostA[2].app[0] pingTxSeq:count 43
attr interpolationmode none
attr title "ping tx seq, count"
scalar UAVNetwork_Multi.hostA[2].app[0] numOutOfOrderArrivals:last 1
attr interpolationmode none
attr title "ping out-of-order arrivals, last"
scalar UAVNetwork_Multi.hostA[2].app[0] numLost:last 3
attr interpolationmode none
attr title "pings lost, last"
statistic UAVNetwork_Multi.hostA[2].app[0] rtt:histogram
field count 26
field mean 0.0041431474792308
field stddev 0.0034697418624146
field min 0.002184816319
field max 0.018291213448
field sum 0.10772183446
field sqrsum 0.00074728516169586
attr interpolationmode none
attr title "ping round-trip time, histogram"
attr unit s
bin	-inf	0
bin	0	0
bin	0.0005	0
bin	0.001	0
bin	0.0015	0
bin	0.002	6
bin	0.0025	12
bin	0.003	1
bin	0.0035	0
bin	0.004	1
bin	0.0045	0
bin	0.005	1
bin	0.0055	2
bin	0.006	0
bin	0.0065	0
bin	0.007	0
bin	0.0075	0
bin	0.008	1
bin	0.0085	0
bin	0.009	0
bin	0.0095	0
bin	0.01	1
bin	0.0105	0
bin	0.011	0
bin	0.0115	0
bin	0.012	0
bin	0.0125	0
bin	0.013	0
bin	0.0135	0
bin	0.014	0
bin	0.0145	0
bin	0.015	0
bin	0.0155	0
bin	0.016	0
bin	0.0165	0
bin	0.017	0
bin	0.0175	0
bin	0.018	1
bin	0.0185	0
bin	0.019	0
bin	0.0195	0
bin	0.02	0
bin	0.0205	0
bin	0.021	0
bin	0.0215	0
bin	0.022	0
bin	0.0225	0
scalar UAVNetwork_Multi.hostB[0].lo[0].lo rcvdPkFromHl:count 30
attr interpolationmode none
attr source packetReceivedFromUpper
attr title "packets received from higher layer, count"
scalar UAVNetwork_Multi.hostB[0].lo[0].lo rcvdPkFromHl:sum(packetBytes) 2520
attr interpolationmode none
attr source packetReceivedFromUpper
attr title "packets received from higher layer, sum(packetBytes)"
scalar UAVNetwork_Multi.hostB[0].lo[0].lo passedUpPk:count 30
attr interpolationmode none
attr source packetSentToUpper
attr title "packets passed to higher layer, count"
scalar UAVNetwork_Multi.hostB[0].lo[0].lo passedUpPk:sum(packetBytes) 2520
attr interpolationmode none
attr source packetSentToUpper
attr title "packets passed to higher layer, sum(packetBytes)"
scalar UAVNetwork_Multi.hostB[0].wlan[0].mac numRetry 18
scalar UAVNetwork_Multi.hostB[0].wlan[0].mac numSentWithoutRetry 64
scalar UAVNetwork_Multi.hostB[0].wlan[0].mac numGivenUp 2
scalar UAVNetwork_Multi.hostB[0].wlan[0].mac numCollision 10
scalar UAVNetwork_Multi.hostB[0].wlan[0].mac numSent 67
scalar UAVNetwork_Multi.hostB[0].wlan[0].mac numReceived 73
scalar UAVNetwork_Multi.hostB[0].wlan[0].mac numSentBroadcast 30
scalar UAVNetwork_Multi.hostB[0].wlan[0].mac numReceivedBroadcast 133
scalar UAVNetwork_Multi.hostB[0].wlan[0].mac packetDropIncorrectlyReceived:count 10
attr interpolationmode none
attr source packetDropReasonIsIncorrectlyReceived(packetDropped)
attr title "packet drop: incorrectly received, count"
scalar UAVNetwork_Multi.hostB[0].wlan[0].mac packetDropIncorrectlyReceived:sum(packetBytes) 669
attr interpolationmode none
attr source packetDropReasonIsIncorrectlyReceived(packetDropped)
attr title "packet drop: incorrectly received, sum(packetBytes)"
scalar UAVNetwork_Multi.hostB[0].wlan[0].mac packetDropNotAddressedToUs:count 516
attr interpolationmode none
attr source packetDropReasonIsNotAddressedToUs(packetDropped)
attr title "packet drop: not addressed to us, count"
scalar UAVNetwork_Multi.hostB[0].wlan[0].mac packetDropNotAddressedToUs:sum(packetBytes) 48516
attr interpolationmode none
attr source packetDropReasonIsNotAddressedToUs(packetDropped)
attr title "packet drop: not addressed to us, sum(packetBytes)"
scalar UAVNetwork_Multi.hostB[0].wlan[0].mac packetDropQueueOverflow:count 0
attr interpolationmode none
attr source packetDropReasonIsQueueOverflow(packetDropped)
attr title "packet drop: queue overflow, count"
scalar UAVNetwork_Multi.hostB[0].wlan[0].mac packetDropQueueOverflow:sum(packetBytes) 0
attr interpolationmode none
attr source packetDropReasonIsQueueOverflow(packetDropped)
attr title "packet drop: queue overflow, sum(packetBytes)"
scalar UAVNetwork_Multi.hostB[0].wlan[0].mac packetDropRetryLimitReached:count 2
attr interpolationmode none
attr source packetDropReasonIsRetryLimitReached(packetDropped)
attr title "packet drop: retry limit reached, count"
scalar UAVNetwork_Multi.hostB[0].wlan[0].mac packetDropRetryLimitReached:sum(packetBytes) 172
attr interpolationmode none
attr source packetDropReasonIsRetryLimitReached(packetDropped)
attr title "packet drop: retry limit reached, sum(packetBytes)"
scalar UAVNetwork_Multi.hostB[0].wlan[0].mac linkBroken:count 2
attr interpolationmode none
attr source linkBroken
attr title "link break, count"
statistic UAVNetwork_Multi.hostB[0].wlan[0].radio minSnir:histogram
field count 1196
field mean 37.053755738491
field stddev 65.523244936411
field min 0.18597077339663
field max 608.32690070676
field sum 44316.291863235
field sqrsum 6772573.3281973
attr source minimumSnir(packetSentToUpper)
attr title "Min SNIR, histogram"
bin	-inf	0
bin	0	452
bin	10	258
bin	20	103
bin	30	84
bin	40	83
bin	50	37
bin	60	24
bin	70	21
bin	80	14
bin	90	23
bin	100	7
bin	110	6
bin	120	9
bin	130	16
bin	140	11
bin	150	3
bin	160	4
bin	170	0
bin	180	0
bin	190	4
bin	200	2
bin	210	8
bin	220	8
bin	230	0
bin	240	0
bin	250	0
bin	260	0
bin	270	0
bin	280	0
bin	290	0
bin	300	0
bin	310	1
bin	320	0
bin	330	0
bin	340	0
bin	350	1
bin	360	0
bin	370	2
bin	380	2
bin	390	0
bin	400	1
bin	410	0
bin	420	2
bin	430	7
bin	440	0
bin	450	0
bin	460	0
bin	470	0
bin	480	0
bin	490	0
bin	500	0
bin	510	0
bin	520	0
bin	530	0
bin	540	0
bin	550	0
bin	560	0
bin	570	0
bin	580	2
bin	590	0
bin	600	1
bin	610	0
bin	620	0
bin	630	0
bin	640	0
bin	650	0
bin	660	0
bin	670	0
bin	680	0
bin	690	0
bin	700	0
bin	710	0
bin	720	0
bin	730	0
bin	740	0
bin	750	0
bin	760	0
bin	770	0
statistic UAVNetwork_Multi.hostB[0].wlan[0].radio packetErrorRate:histogram
field count 1196
field mean 0.00084625761314271
field stddev 0.028916792693827
field min 0
field max 0.99999987805785
field sum 1.0121241053187
field sqrsum 1.0000926928684
attr source packetErrorRate(packetSentToUpper)
attr title "Packet error rate, histogram"
bin	-inf	0
bin	0	1195
bin	0.02	0
bin	0.04	0
bin	0.06	0
bin	0.08	0
bin	0.1	0
bin	0.12	0
bin	0.14	0
bin	0.16	0
bin	0.18	0
bin	0.2	0
bin	0.22	0
bin	0.24	0
bin	0.26	0
bin	0.28	0
bin	0.3	0
bin	0.32	0
bin	0.34	0
bin	0.36	0
bin	0.38	0
bin	0.4	0
bin	0.42	0
bin	0.44	0
bin	0.46	0
bin	0.48	0
bin	0.5	0
bin	0.52	0
bin	0.54	0
bin	0.56	0
bin	0.58	0
bin	0.6	0
bin	0.62	0
bin	0.64	0
bin	0.66	0
bin	0.68	0
bin	0.7	0
bin	0.72	0
bin	0.74	0
bin	0.76	0
bin	0.78	0
bin	0.8	0
bin	0.82	0
bin	0.84	0
bin	0.86	0
bin	0.88	0
bin	0.9	0
bin	0.92	0
bin	0.94	0
bin	0.96	0
bin	0.98	1
bin	1	0
statistic UAVNetwork_Multi.hostB[0].wlan[0].radio bitErrorRate:histogram
field count 1196
field mean 2.2544656150905e-005
field stddev 0.00077759127415658
field min 0
field max 0.026891598090363
field sum 0.026963408756482
field sqrsum 0.00072316246740418
attr source bitErrorRate(packetSentToUpper)
attr title "Bit error rate, histogram"
bin	-inf	0
bin	0	1195
bin	0.0005	0
bin	0.001	0
bin	0.0015	0
bin	0.002	0
bin	0.0025	0
bin	0.003	0
bin	0.0035	0
bin	0.004	0
bin	0.0045	0
bin	0.005	0
bin	0.0055	0
bin	0.006	0
bin	0.0065	0
bin	0.007	0
bin	0.0075	0
bin	0.008	0
bin	0.0085	0
bin	0.009	0
bin	0.0095	0
bin	0.01	0
bin	0.0105	0
bin	0.011	0
bin	0.0115	0
bin	0.012	0
bin	0.0125	0
bin	0.013	0
bin	0.0135	0
bin	0.014	0
bin	0.0145	0
bin	0.015	0
bin	0.0155	0
bin	0.016	0
bin	0.0165	0
bin	0.017	0
bin	0.0175	0
bin	0.018	0
bin	0.0185	0
bin	0.019	0
bin	0.0195	0
bin	0.02	0
bin	0.0205	0
bin	0.021	0
bin	0.0215	0
bin	0.022	0
bin	0.0225	0
bin	0.023	0
bin	0.0235	0
bin	0.024	0
bin	0.0245	0
bin	0.025	0
bin	0.0255	0
bin	0.026	0
bin	0.0265	1
bin	0.027	0
statistic UAVNetwork_Multi.hostB[0].wlan[0].radio symbolErrorRate:histogram
field count 1196
field mean 2.2544656150905e-005
field stddev 0.00077759127415658
field min 0
field max 0.026891598090363
field sum 0.026963408756482
field sqrsum 0.00072316246740418
attr source symbolErrorRate(packetSentToUpper)
attr title "Symbol error rate, histogram"
bin	-inf	0
bin	0	1195
bin	0.0005	0
bin	0.001	0
bin	0.0015	0
bin	0.002	0
bin	0.0025	0
bin	0.003	0
bin	0.0035	0
bin	0.004	0
bin	0.0045	0
bin	0.005	0
bin	0.0055	0
bin	0.006	0
bin	0.0065	0
bin	0.007	0
bin	0.0075	0
bin	0.008	0
bin	0.0085	0
bin	0.009	0
bin	0.0095	0
bin	0.01	0
bin	0.0105	0
bin	0.011	0
bin	0.0115	0
bin	0.012	0
bin	0.0125	0
bin	0.013	0
bin	0.0135	0
bin	0.014	0
bin	0.0145	0
bin	0.015	0
bin	0.0155	0
bin	0.016	0
bin	0.0165	0
bin	0.017	0
bin	0.0175	0
bin	0.018	0
bin	0.0185	0
bin	0.019	0
bin	0.0195	0
bin	0.02	0
bin	0.0205	0
bin	0.021	0
bin	0.0215	0
bin	0.022	0
bin	0.0225	0
bin	0.023	0
bin	0.0235	0
bin	0.024	0
bin	0.0245	0
bin	0.025	0
bin	0.0255	0
bin	0.026	0
bin	0.0265	1
bin	0.027	0
scalar UAVNetwork_Multi.hostB[0].wlan[0].radio transmissionState:count 760
attr interpolationmode sample-hold
attr source transmissionStateChanged
attr title "Radio transmission state, count"
scalar UAVNetwork_Multi.hostB[0].wlan[0].radio receptionState:count 3246
attr interpolationmode sample-hold
attr source receptionStateChanged
attr title "Radio reception state, count"
scalar UAVNetwork_Multi.hostB[0].wlan[0].radio radioMode:count 383
attr interpolationmode sample-hold
attr source radioModeChanged
attr title "Radio mode, count"
scalar UAVNetwork_Multi.hostB[0].ipv4.ip packetDropAddressResolutionFailed:count 0
attr interpolationmode none
attr source packetDropReasonIsAddressResolutionFailed(packetDropped)
attr title "packet drop: address resolution failed, count"
scalar UAVNetwork_Multi.hostB[0].ipv4.ip packetDropAddressResolutionFailed:sum(packetBytes) 0
attr interpolationmode none
attr source packetDropReasonIsAddressResolutionFailed(packetDropped)
attr title "packet drop: address resolution failed, sum(packetBytes)"
scalar UAVNetwork_Multi.hostB[0].ipv4.ip packetDropHopLimitReached:count 0
attr interpolationmode none
attr source packetDropReasonIsHopLimitReached(packetDropped)
attr title "packet drop: hop limit reached, count"
scalar UAVNetwork_Multi.hostB[0].ipv4.ip packetDropHopLimitReached:sum(packetBytes) 0
attr interpolationmode none
attr source packetDropReasonIsHopLimitReached(packetDropped)
attr title "packet drop: hop limit reached, sum(packetBytes)"
scalar UAVNetwork_Multi.hostB[0].ipv4.ip packetDropForwardingDisabled:count 5
attr interpolationmode none
attr source packetDropReasonIsForwardingDisabled(packetDropped)
attr title "packet drop: forwarding disabled, count"
scalar UAVNetwork_Multi.hostB[0].ipv4.ip packetDropForwardingDisabled:sum(packetBytes) 420
attr interpolationmode none
attr source packetDropReasonIsForwardingDisabled(packetDropped)
attr title "packet drop: forwarding disabled, sum(packetBytes)"
scalar UAVNetwork_Multi.hostB[0].ipv4.ip packetDropNoInterfaceFound:count 0
attr interpolationmode none
attr source packetDropReasonIsNoInterfaceFound(packetDropped)
attr title "packet drop: no interface found, count"
scalar UAVNetwork_Multi.hostB[0].ipv4.ip packetDropNoInterfaceFound:sum(packetBytes) 0
attr interpolationmode none
attr source packetDropReasonIsNoInterfaceFound(packetDropped)
attr title "packet drop: no interface found, sum(packetBytes)"
scalar UAVNetwork_Multi.hostB[0].ipv4.ip packetDropNoRouteFound:count 0
attr interpolationmode none
attr source packetDropReasonIsNoRouteFound(packetDropped)
attr title "packet drop: no route found, count"
scalar UAVNetwork_Multi.hostB[0].ipv4.ip packetDropNoRouteFound:sum(packetBytes) 0
attr interpolationmode none
attr source packetDropReasonIsNoRouteFound(packetDropped)
attr title "packet drop: no route found, sum(packetBytes)"
scalar UAVNetwork_Multi.hostB[0].ipv4.ip packetDropUndefined:count 0
attr interpolationmode none
attr source packetDropReasonIsUndefined(packetDropped)
attr title "packet drop: undefined, count"
scalar UAVNetwork_Multi.hostB[0].ipv4.ip packetDropUndefined:sum(packetBytes) 0
attr interpolationmode none
attr source packetDropReasonIsUndefined(packetDropped)
attr title "packet drop: undefined, sum(packetBytes)"
scalar UAVNetwork_Multi.hostB[0].udp packetReceived:count 0
attr interpolationmode none
attr source packetReceived
attr title "packets received, count"
scalar UAVNetwork_Multi.hostB[0].udp packetReceived:sum(packetBytes) 0
attr interpolationmode none
attr source packetReceived
attr title "packets received, sum(packetBytes)"
scalar UAVNetwork_Multi.hostB[0].udp packetSent:count 0
attr interpolationmode none
attr source packetSent
attr title "packets sent, count"
scalar UAVNetwork_Multi.hostB[0].udp packetSent:sum(packetBytes) 0
attr interpolationmode none
attr source packetSent
attr title "packets sent, sum(packetBytes)"
scalar UAVNetwork_Multi.hostB[0].udp passedUpPk:count 0
attr interpolationmode none
attr source packetSentToUpper
attr title "packets passed up, count"
scalar UAVNetwork_Multi.hostB[0].udp droppedPkWrongPort:count 0
attr interpolationmode none
attr source packetDropReasonIsNoPortFound(packetDropped)
attr title "packets dropped (wrong port), count"
scalar UAVNetwork_Multi.hostB[0].udp droppedPkBadChecksum:count 0
attr interpolationmode none
attr source packetDropReasonIsIncorrectlyReceived(packetDropped)
attr title "packets dropped (checksum error), count"
scalar UAVNetwork_Multi.hostB[0].app[0] "Pings sent" 43
scalar UAVNetwork_Multi.hostB[0].app[0] "ping loss rate (%)" 6.9767441860465
scalar UAVNetwork_Multi.hostB[0].app[0] "ping out-of-order rate (%)" 0
scalar UAVNetwork_Multi.hostB[0].app[0] pingRxSeq:count 40
attr interpolationmode none
attr title "ping rx seq, count"
scalar UAVNetwork_Multi.hostB[0].app[0] pingTxSeq:count 43
attr interpolationmode none
attr title "ping tx seq, count"
scalar UAVNetwork_Multi.hostB[0].app[0] numOutOfOrderArrivals:last nan
attr interpolationmode none
attr title "ping out-of-order arrivals, last"
scalar UAVNetwork_Multi.hostB[0].app[0] numLost:last 3
attr interpolationmode none
attr title "pings lost, last"
statistic UAVNetwork_Multi.hostB[0].app[0] rtt:histogram
field count 25
field mean 0.00310972562644
field stddev 0.0015726029181828
field min 0.002165109211
field max 0.009147073219
field sum 0.077743140661
field sqrsum 0.00030111375531209
attr interpolationmode none
attr title "ping round-trip time, histogram"
attr unit s
bin	-inf	0
bin	0.0004	0
bin	0.0006	0
bin	0.0008	0
bin	0.001	0
bin	0.0012	0
bin	0.0014	0
bin	0.0016	0
bin	0.0018	0
bin	0.002	1
bin	0.0022	2
bin	0.0024	8
bin	0.0026	6
bin	0.0028	4
bin	0.003	1
bin	0.0032	0
bin	0.0034	0
bin	0.0036	0
bin	0.0038	0
bin	0.004	0
bin	0.0042	0
bin	0.0044	1
bin	0.0046	0
bin	0.0048	0
bin	0.005	0
bin	0.0052	0
bin	0.0054	0
bin	0.0056	0
bin	0.0058	0
bin	0.006	0
bin	0.0062	0
bin	0.0064	0
bin	0.0066	0
bin	0.0068	1
bin	0.007	0
bin	0.0072	0
bin	0.0074	0
bin	0.0076	0
bin	0.0078	0
bin	0.008	0
bin	0.0082	0
bin	0.0084	0
bin	0.0086	0
bin	0.0088	0
bin	0.009	1
bin	0.0092	0
bin	0.0094	0
bin	0.0096	0
bin	0.0098	0
bin	0.01	0
bin	0.0102	0
bin	0.0104	0
bin	0.0106	0
bin	0.0108	0
bin	0.011	0
scalar UAVNetwork_Multi.hostB[1].lo[0].lo rcvdPkFromHl:count 28
attr interpolationmode none
attr source packetReceivedFromUpper
attr title "packets received from higher layer, count"
scalar UAVNetwork_Multi.hostB[1].lo[0].lo rcvdPkFromHl:sum(packetBytes) 2352
attr interpolationmode none
attr source packetReceivedFromUpper
attr title "packets received from higher layer, sum(packetBytes)"
scalar UAVNetwork_Multi.hostB[1].lo[0].lo passedUpPk:count 28
attr interpolationmode none
attr source packetSentToUpper
attr title "packets passed to higher layer, count"
scalar UAVNetwork_Multi.hostB[1].lo[0].lo passedUpPk:sum(packetBytes) 2352
attr interpolationmode none
attr source packetSentToUpper
attr title "packets passed to higher layer, sum(packetBytes)"
scalar UAVNetwork_Multi.hostB[1].wlan[0].mac numRetry 14
scalar UAVNetwork_Multi.hostB[1].wlan[0].mac numSentWithoutRetry 70
scalar UAVNetwork_Multi.hostB[1].wlan[0].mac numGivenUp 2
scalar UAVNetwork_Multi.hostB[1].wlan[0].mac numCollision 15
scalar UAVNetwork_Multi.hostB[1].wlan[0].mac numSent 70
scalar UAVNetwork_Multi.hostB[1].wlan[0].mac numReceived 70
scalar UAVNetwork_Multi.hostB[1].wlan[0].mac numSentBroadcast 24
scalar UAVNetwork_Multi.hostB[1].wlan[0].mac numReceivedBroadcast 139
scalar UAVNetwork_Multi.hostB[1].wlan[0].mac packetDropIncorrectlyReceived:count 15
attr interpolationmode none
attr source packetDropReasonIsIncorrectlyReceived(packetDropped)
attr title "packet drop: incorrectly received, count"
scalar UAVNetwork_Multi.hostB[1].wlan[0].mac packetDropIncorrectlyReceived:sum(packetBytes) 1112
attr interpolationmode none
attr source packetDropReasonIsIncorrectlyReceived(packetDropped)
attr title "packet drop: incorrectly received, sum(packetBytes)"
scalar UAVNetwork_Multi.hostB[1].wlan[0].mac packetDropNotAddressedToUs:count 541
attr interpolationmode none
attr source packetDropReasonIsNotAddressedToUs(packetDropped)
attr title "packet drop: not addressed to us, count"
scalar UAVNetwork_Multi.hostB[1].wlan[0].mac packetDropNotAddressedToUs:sum(packetBytes) 51080
attr interpolationmode none
attr source packetDropReasonIsNotAddressedToUs(packetDropped)
attr title "packet drop: not addressed to us, sum(packetBytes)"
scalar UAVNetwork_Multi.hostB[1].wlan[0].mac packetDropQueueOverflow:count 0
attr interpolationmode none
attr source packetDropReasonIsQueueOverflow(packetDropped)
attr title "packet drop: queue overflow, count"
scalar UAVNetwork_Multi.hostB[1].wlan[0].mac packetDropQueueOverflow:sum(packetBytes) 0
attr interpolationmode none
attr source packetDropReasonIsQueueOverflow(packetDropped)
attr title "packet drop: queue overflow, sum(packetBytes)"
scalar UAVNetwork_Multi.hostB[1].wlan[0].mac packetDropRetryLimitReached:count 2
attr interpolationmode none
attr source packetDropReasonIsRetryLimitReached(packetDropped)
attr title "packet drop: retry limit reached, count"
scalar UAVNetwork_Multi.hostB[1].wlan[0].mac packetDropRetryLimitReached:sum(packetBytes) 172
attr interpolationmode none
attr source packetDropReasonIsRetryLimitReached(packetDropped)
attr title "packet drop: retry limit reached, sum(packetBytes)"
scalar UAVNetwork_Multi.hostB[1].wlan[0].mac linkBroken:count 2
attr interpolationmode none
attr source linkBroken
attr title "link break, count"
statistic UAVNetwork_Multi.hostB[1].wlan[0].radio minSnir:histogram
field count 1231
field mean 37.092648278013
field stddev 66.026343248871
field min 0.17921277526746
field max 585.94935669559
field sum 45661.050030234
field sqrsum 7055847.212242
attr source minimumSnir(packetSentToUpper)
attr title "Min SNIR, histogram"
bin	-inf	0
bin	0	569
bin	10	224
bin	20	74
bin	30	77
bin	40	67
bin	50	48
bin	60	13
bin	70	19
bin	80	8
bin	90	4
bin	100	13
bin	110	7
bin	120	9
bin	130	4
bin	140	11
bin	150	7
bin	160	13
bin	170	4
bin	180	4
bin	190	17
bin	200	3
bin	210	0
bin	220	9
bin	230	2
bin	240	2
bin	250	0
bin	260	1
bin	270	0
bin	280	0
bin	290	0
bin	300	1
bin	310	3
bin	320	10
bin	330	0
bin	340	1
bin	350	2
bin	360	0
bin	370	0
bin	380	0
bin	390	0
bin	400	0
bin	410	0
bin	420	0
bin	430	0
bin	440	0
bin	450	1
bin	460	0
bin	470	0
bin	480	0
bin	490	0
bin	500	0
bin	510	0
bin	520	0
bin	530	0
bin	540	0
bin	550	2
bin	560	0
bin	570	0
bin	580	2
bin	590	0
bin	600	0
bin	610	0
bin	620	0
bin	630	0
bin	640	0
bin	650	0
bin	660	0
bin	670	0
bin	680	0
bin	690	0
bin	700	0
bin	710	0
bin	720	0
bin	730	0
bin	740	0
statistic UAVNetwork_Multi.hostB[1].wlan[0].radio packetErrorRate:histogram
field count 1231
field mean 0.0022632724296583
field stddev 0.046026770124425
field min 0
field max 0.99999996888375
field sum 2.7860883609093
field sqrsum 2.6120158657204
attr source packetErrorRate(packetSentToUpper)
attr title "Packet error rate, histogram"
bin	-inf	0
bin	0	1228
bin	0.02	0
bin	0.04	0
bin	0.06	0
bin	0.08	0
bin	0.1	0
bin	0.12	0
bin	0.14	0
bin	0.16	0
bin	0.18	0
bin	0.2	0
bin	0.22	0
bin	0.24	0
bin	0.26	0
bin	0.28	0
bin	0.3	0
bin	0.32	0
bin	0.34	0
bin	0.36	0
bin	0.38	0
bin	0.4	0
bin	0.42	0
bin	0.44	0
bin	0.46	0
bin	0.48	0
bin	0.5	0
bin	0.52	0
bin	0.54	0
bin	0.56	0
bin	0.58	0
bin	0.6	0
bin	0.62	0
bin	0.64	0
bin	0.66	0
bin	0.68	0
bin	0.7	0
bin	0.72	0
bin	0.74	0
bin	0.76	0
bin	0.78	1
bin	0.8	0
bin	0.82	0
bin	0.84	0
bin	0.86	0
bin	0.88	0
bin	0.9	0
bin	0.92	0
bin	0.94	0
bin	0.96	0
bin	0.98	2
bin	1	0
statistic UAVNetwork_Multi.hostB[1].wlan[0].radio bitErrorRate:histogram
field count 1231
field mean 4.9307626730375e-005
field stddev 0.0011723549033024
field min 0
field max 0.02916477390528
field sum 0.060697688505092
field sqrsum 0.0016935245627038
attr source bitErrorRate(packetSentToUpper)
attr title "Bit error rate, histogram"
bin	-inf	0
bin	0	1228
bin	0.0005	0
bin	0.001	0
bin	0.0015	0
bin	0.002	0
bin	0.0025	1
bin	0.003	0
bin	0.0035	0
bin	0.004	0
bin	0.0045	0
bin	0.005	0
bin	0.0055	0
bin	0.006	0
bin	0.0065	0
bin	0.007	0
bin	0.0075	0
bin	0.008	0
bin	0.0085	0
bin	0.009	0
bin	0.0095	0
bin	0.01	0
bin	0.0105	0
bin	0.011	0
bin	0.0115	0
bin	0.012	0
bin	0.0125	0
bin	0.013	0
bin	0.0135	0
bin	0.014	0
bin	0.0145	0
bin	0.015	0
bin	0.0155	0
bin	0.016	0
bin	0.0165	0
bin	0.017	0
bin	0.0175	0
bin	0.018	0
bin	0.0185	0
bin	0.019	0
bin	0.0195	0
bin	0.02	0
bin	0.0205	0
bin	0.021	0
bin	0.0215	0
bin	0.022	0
bin	0.0225	0
bin	0.023	0
bin	0.0235	0
bin	0.024	0
bin	0.0245	0
bin	0.025	0
bin	0.0255	0
bin	0.026	0
bin	0.0265	0
bin	0.027	0
bin	0.0275	0
bin	0.028	0
bin	0.0285	1
bin	0.029	1
bin	0.0295	0
statistic UAVNetwork_Multi.hostB[1].wlan[0].radio symbolErrorRate:histogram
field count 1231
field mean 4.9307626730375e-005
field stddev 0.0011723549033024
field min 0
field max 0.02916477390528
field sum 0.060697688505092
field sqrsum 0.0016935245627038
attr source symbolErrorRate(packetSentToUpper)
attr title "Symbol error rate, histogram"
bin	-inf	0
bin	0	1228
bin	0.0005	0
bin	0.001	0
bin	0.0015	0
bin	0.002	0
bin	0.0025	1
bin	0.003	0
bin	0.0035	0
bin	0.004	0
bin	0.0045	0
bin	0.005	0
bin	0.0055	0
bin	0.006	0
bin	0.0065	0
bin	0.007	0
bin	0.0075	0
bin	0.008	0
bin	0.0085	0
bin	0.009	0
bin	0.0095	0
bin	0.01	0
bin	0.0105	0
bin	0.011	0
bin	0.0115	0
bin	0.012	0
bin	0.0125	0
bin	0.013	0
bin	0.0135	0
bin	0.014	0
bin	0.0145	0
bin	0.015	0
bin	0.0155	0
bin	0.016	0
bin	0.0165	0
bin	0.017	0
bin	0.0175	0
bin	0.018	0
bin	0.0185	0
bin	0.019	0
bin	0.0195	0
bin	0.02	0
bin	0.0205	0
bin	0.021	0
bin	0.0215	0
bin	0.022	0
bin	0.0225	0
bin	0.023	0
bin	0.0235	0
bin	0.024	0
bin	0.0245	0
bin	0.025	0
bin	0.0255	0
bin	0.026	0
bin	0.0265	0
bin	0.027	0
bin	0.0275	0
bin	0.028	0
bin	0.0285	1
bin	0.029	1
bin	0.0295	0
scalar UAVNetwork_Multi.hostB[1].wlan[0].radio transmissionState:count 720
attr interpolationmode sample-hold
attr source transmissionStateChanged
attr title "Radio transmission state, count"
scalar UAVNetwork_Multi.hostB[1].wlan[0].radio receptionState:count 3539
attr interpolationmode sample-hold
attr source receptionStateChanged
attr title "Radio reception state, count"
scalar UAVNetwork_Multi.hostB[1].wlan[0].radio radioMode:count 363
attr interpolationmode sample-hold
attr source radioModeChanged
attr title "Radio mode, count"
scalar UAVNetwork_Multi.hostB[1].ipv4.ip packetDropAddressResolutionFailed:count 0
attr interpolationmode none
attr source packetDropReasonIsAddressResolutionFailed(packetDropped)
attr title "packet drop: address resolution failed, count"
scalar UAVNetwork_Multi.hostB[1].ipv4.ip packetDropAddressResolutionFailed:sum(packetBytes) 0
attr interpolationmode none
attr source packetDropReasonIsAddressResolutionFailed(packetDropped)
attr title "packet drop: address resolution failed, sum(packetBytes)"
scalar UAVNetwork_Multi.hostB[1].ipv4.ip packetDropHopLimitReached:count 0
attr interpolationmode none
attr source packetDropReasonIsHopLimitReached(packetDropped)
attr title "packet drop: hop limit reached, count"
scalar UAVNetwork_Multi.hostB[1].ipv4.ip packetDropHopLimitReached:sum(packetBytes) 0
attr interpolationmode none
attr source packetDropReasonIsHopLimitReached(packetDropped)
attr title "packet drop: hop limit reached, sum(packetBytes)"
scalar UAVNetwork_Multi.hostB[1].ipv4.ip packetDropForwardingDisabled:count 6
attr interpolationmode none
attr source packetDropReasonIsForwardingDisabled(packetDropped)
attr title "packet drop: forwarding disabled, count"
scalar UAVNetwork_Multi.hostB[1].ipv4.ip packetDropForwardingDisabled:sum(packetBytes) 504
attr interpolationmode none
attr source packetDropReasonIsForwardingDisabled(packetDropped)
attr title "packet drop: forwarding disabled, sum(packetBytes)"
scalar UAVNetwork_Multi.hostB[1].ipv4.ip packetDropNoInterfaceFound:count 0
attr interpolationmode none
attr source packetDropReasonIsNoInterfaceFound(packetDropped)
attr title "packet drop: no interface found, count"
scalar UAVNetwork_Multi.hostB[1].ipv4.ip packetDropNoInterfaceFound:sum(packetBytes) 0
attr interpolationmode none
attr source packetDropReasonIsNoInterfaceFound(packetDropped)
attr title "packet drop: no interface found, sum(packetBytes)"
scalar UAVNetwork_Multi.hostB[1].ipv4.ip packetDropNoRouteFound:count 0
attr interpolationmode none
attr source packetDropReasonIsNoRouteFound(packetDropped)
attr title "packet drop: no route found, count"
scalar UAVNetwork_Multi.hostB[1].ipv4.ip packetDropNoRouteFound:sum(packetBytes) 0
attr interpolationmode none
attr source packetDropReasonIsNoRouteFound(packetDropped)
attr title "packet drop: no route found, sum(packetBytes)"
scalar UAVNetwork_Multi.hostB[1].ipv4.ip packetDropUndefined:count 0
attr interpolationmode none
attr source packetDropReasonIsUndefined(packetDropped)
attr title "packet drop: undefined, count"
scalar UAVNetwork_Multi.hostB[1].ipv4.ip packetDropUndefined:sum(packetBytes) 0
attr interpolationmode none
attr source packetDropReasonIsUndefined(packetDropped)
attr title "packet drop: undefined, sum(packetBytes)"
scalar UAVNetwork_Multi.hostB[1].udp packetReceived:count 0
attr interpolationmode none
attr source packetReceived
attr title "packets received, count"
scalar UAVNetwork_Multi.hostB[1].udp packetReceived:sum(packetBytes) 0
attr interpolationmode none
attr source packetReceived
attr title "packets received, sum(packetBytes)"
scalar UAVNetwork_Multi.hostB[1].udp packetSent:count 0
attr interpolationmode none
attr source packetSent
attr title "packets sent, count"
scalar UAVNetwork_Multi.hostB[1].udp packetSent:sum(packetBytes) 0
attr interpolationmode none
attr source packetSent
attr title "packets sent, sum(packetBytes)"
scalar UAVNetwork_Multi.hostB[1].udp passedUpPk:count 0
attr interpolationmode none
attr source packetSentToUpper
attr title "packets passed up, count"
scalar UAVNetwork_Multi.hostB[1].udp droppedPkWrongPort:count 0
attr interpolationmode none
attr source packetDropReasonIsNoPortFound(packetDropped)
attr title "packets dropped (wrong port), count"
scalar UAVNetwork_Multi.hostB[1].udp droppedPkBadChecksum:count 0
attr interpolationmode none
attr source packetDropReasonIsIncorrectlyReceived(packetDropped)
attr title "packets dropped (checksum error), count"
scalar UAVNetwork_Multi.hostB[1].app[0] "Pings sent" 43
scalar UAVNetwork_Multi.hostB[1].app[0] "ping loss rate (%)" 4.6511627906977
scalar UAVNetwork_Multi.hostB[1].app[0] "ping out-of-order rate (%)" 0
scalar UAVNetwork_Multi.hostB[1].app[0] pingRxSeq:count 41
attr interpolationmode none
attr title "ping rx seq, count"
scalar UAVNetwork_Multi.hostB[1].app[0] pingTxSeq:count 43
attr interpolationmode none
attr title "ping tx seq, count"
scalar UAVNetwork_Multi.hostB[1].app[0] numOutOfOrderArrivals:last nan
attr interpolationmode none
attr title "ping out-of-order arrivals, last"
scalar UAVNetwork_Multi.hostB[1].app[0] numLost:last 2
attr interpolationmode none
attr title "pings lost, last"
statistic UAVNetwork_Multi.hostB[1].app[0] rtt:histogram
field count 27
field mean 0.0032226254677037
field stddev 0.0021049262873359
field min 0.002044543158
field max 0.010257281614
field sum 0.087010887628
field sqrsum 0.00039560208399056
attr interpolationmode none
attr title "ping round-trip time, histogram"
attr unit s
bin	-inf	0
bin	0	0
bin	0.0002	0
bin	0.0004	0
bin	0.0006	0
bin	0.0008	0
bin	0.001	0
bin	0.0012	0
bin	0.0014	0
bin	0.0016	0
bin	0.0018	0
bin	0.002	3
[...]
attr interpolationmode none
attr source packetDropReasonIsAddressResolutionFailed(packetDropped)
attr title "packet drop: address resolution failed, sum(packetBytes)"
scalar UAVNetwork_Multi.hostRouters[1].ipv4.ip packetDropHopLimitReached:count 0
attr interpolationmode none
attr source packetDropReasonIsHopLimitReached(packetDropped)
attr title "packet drop: hop limit reached, count"
scalar UAVNetwork_Multi.hostRouters[1].ipv4.ip packetDropHopLimitReached:sum(packetBytes) 0
attr interpolationmode none
attr source packetDropReasonIsHopLimitReached(packetDropped)
attr title "packet drop: hop limit reached, sum(packetBytes)"
scalar UAVNetwork_Multi.hostRouters[1].ipv4.ip packetDropForwardingDisabled:count 0
attr interpolationmode none
attr source packetDropReasonIsForwardingDisabled(packetDropped)
attr title "packet drop: forwarding disabled, count"
scalar UAVNetwork_Multi.hostRouters[1].ipv4.ip packetDropForwardingDisabled:sum(packetBytes) 0
attr interpolationmode none
attr source packetDropReasonIsForwardingDisabled(packetDropped)
attr title "packet drop: forwarding disabled, sum(packetBytes)"
scalar UAVNetwork_Multi.hostRouters[1].ipv4.ip packetDropNoInterfaceFound:count 0
attr interpolationmode none
attr source packetDropReasonIsNoInterfaceFound(packetDropped)
attr title "packet drop: no interface found, count"
scalar UAVNetwork_Multi.hostRouters[1].ipv4.ip packetDropNoInterfaceFound:sum(packetBytes) 0
attr interpolationmode none
attr source packetDropReasonIsNoInterfaceFound(packetDropped)
attr title "packet drop: no interface found, sum(packetBytes)"
scalar UAVNetwork_Multi.hostRouters[1].ipv4.ip packetDropNoRouteFound:count 0
attr interpolationmode none
attr source packetDropReasonIsNoRouteFound(packetDropped)
attr title "packet drop: no route found, count"
scalar UAVNetwork_Multi.hostRouters[1].ipv4.ip packetDropNoRouteFound:sum(packetBytes) 0
attr interpolationmode none
attr source packetDropReasonIsNoRouteFound(packetDropped)
attr title "packet drop: no route found, sum(packetBytes)"
scalar UAVNetwork_Multi.hostRouters[1].ipv4.ip packetDropUndefined:count 0
attr interpolationmode none
attr source packetDropReasonIsUndefined(packetDropped)
attr title "packet drop: undefined, count"
scalar UAVNetwork_Multi.hostRouters[1].ipv4.ip packetDropUndefined:sum(packetBytes) 0
attr interpolationmode none
attr source packetDropReasonIsUndefined(packetDropped)
attr title "packet drop: undefined, sum(packetBytes)"
scalar UAVNetwork_Multi.hostRouters[1].udp packetReceived:count 0
attr interpolationmode none
attr source packetReceived
attr title "packets received, count"
scalar UAVNetwork_Multi.hostRouters[1].udp packetReceived:sum(packetBytes) 0
attr interpolationmode none
attr source packetReceived
attr title "packets received, sum(packetBytes)"
scalar UAVNetwork_Multi.hostRouters[1].udp packetSent:count 0
attr interpolationmode none
attr source packetSent
attr title "packets sent, count"
scalar UAVNetwork_Multi.hostRouters[1].udp packetSent:sum(packetBytes) 0
attr interpolationmode none
attr source packetSent
attr title "packets sent, sum(packetBytes)"
scalar UAVNetwork_Multi.hostRouters[1].udp passedUpPk:count 0
attr interpolationmode none
attr source packetSentToUpper
attr title "packets passed up, count"
scalar UAVNetwork_Multi.hostRouters[1].udp droppedPkWrongPort:count 0
attr interpolationmode none
attr source packetDropReasonIsNoPortFound(packetDropped)
attr title "packets dropped (wrong port), count"
scalar UAVNetwork_Multi.hostRouters[1].udp droppedPkBadChecksum:count 0
attr interpolationmode none
attr source packetDropReasonIsIncorrectlyReceived(packetDropped)
attr title "packets dropped (checksum error), count"
scalar UAVNetwork_Multi.hostRouters[1].app[0] "Pings sent" 37
scalar UAVNetwork_Multi.hostRouters[1].app[0] "ping loss rate (%)" 21.621621621622
scalar UAVNetwork_Multi.hostRouters[1].app[0] "ping out-of-order rate (%)" 0
scalar UAVNetwork_Multi.hostRouters[1].app[0] pingRxSeq:count 29
attr interpolationmode none
attr title "ping rx seq, count"
scalar UAVNetwork_Multi.hostRouters[1].app[0] pingTxSeq:count 37
attr interpolationmode none
attr title "ping tx seq, count"
scalar UAVNetwork_Multi.hostRouters[1].app[0] numOutOfOrderArrivals:last nan
attr interpolationmode none
attr title "ping out-of-order arrivals, last"
scalar UAVNetwork_Multi.hostRouters[1].app[0] numLost:last 8
attr interpolationmode none
attr title "pings lost, last"
statistic UAVNetwork_Multi.hostRouters[1].app[0] rtt:histogram
field count 29
field mean 0.0028419586214828
field stddev 0.0010369248614336
field min 0.00202658504
field max 0.007852090526
field sum 0.082416800023
field sqrsum 0.00026433110409164
attr interpolationmode none
attr title "ping round-trip time, histogram"
attr unit s
bin	-inf	0
bin	0.0005	0
bin	0.0006	0
bin	0.0007	0
bin	0.0008	0
bin	0.0009	0
bin	0.001	0
bin	0.0011	0
bin	0.0012	0
bin	0.0013	0
bin	0.0014	0
bin	0.0015	0
bin	0.0016	0
bin	0.0017	0
bin	0.0018	0
bin	0.0019	0
bin	0.002	1
bin	0.0021	1
bin	0.0022	0
bin	0.0023	4
bin	0.0024	4
bin	0.0025	3
bin	0.0026	2
bin	0.0027	7
bin	0.0028	3
bin	0.0029	1
bin	0.003	0
bin	0.0031	1
bin	0.0032	0
bin	0.0033	0
bin	0.0034	0
bin	0.0035	0
bin	0.0036	0
bin	0.0037	0
bin	0.0038	0
bin	0.0039	0
bin	0.004	0
bin	0.0041	0
bin	0.0042	1
bin	0.0043	0
bin	0.0044	0
bin	0.0045	0
bin	0.0046	0
bin	0.0047	0
bin	0.0048	0
bin	0.0049	0
bin	0.005	0
bin	0.0051	0
bin	0.0052	0
bin	0.0053	0
bin	0.0054	0
bin	0.0055	0
bin	0.0056	0
bin	0.0057	0
bin	0.0058	0
bin	0.0059	0
bin	0.006	0
bin	0.0061	0
bin	0.0062	0
bin	0.0063	0
bin	0.0064	0
bin	0.0065	0
bin	0.0066	0
bin	0.0067	0
bin	0.0068	0
bin	0.0069	0
bin	0.007	0
bin	0.0071	0
bin	0.0072	0
bin	0.0073	0
bin	0.0074	0
bin	0.0075	0
bin	0.0076	0
bin	0.0077	0
bin	0.0078	1
bin	0.0079	0
bin	0.008	0
bin	0.0081	0
bin	0.0082	0
bin	0.0083	0
bin	0.0084	0
bin	0.0085	0
bin	0.0086	0
bin	0.0087	0
bin	0.0088	0
bin	0.0089	0
bin	0.009	0
bin	0.0091	0
bin	0.0092	0
bin	0.0093	0
bin	0.0094	0
scalar UAVNetwork_Multi.hostRouters[2].lo[0].lo rcvdPkFromHl:count 0
attr interpolationmode none
attr source packetReceivedFromUpper
attr title "packets received from higher layer, count"
scalar UAVNetwork_Multi.hostRouters[2].lo[0].lo rcvdPkFromHl:sum(packetBytes) 0
attr interpolationmode none
attr source packetReceivedFromUpper
attr title "packets received from higher layer, sum(packetBytes)"
scalar UAVNetwork_Multi.hostRouters[2].lo[0].lo passedUpPk:count 0
attr interpolationmode none
attr source packetSentToUpper
attr title "packets passed to higher layer, count"
scalar UAVNetwork_Multi.hostRouters[2].lo[0].lo passedUpPk:sum(packetBytes) 0
attr interpolationmode none
attr source packetSentToUpper
attr title "packets passed to higher layer, sum(packetBytes)"
scalar UAVNetwork_Multi.hostRouters[2].wlan[0].mac numRetry 36
scalar UAVNetwork_Multi.hostRouters[2].wlan[0].mac numSentWithoutRetry 126
scalar UAVNetwork_Multi.hostRouters[2].wlan[0].mac numGivenUp 5
scalar UAVNetwork_Multi.hostRouters[2].wlan[0].mac numCollision 24
scalar UAVNetwork_Multi.hostRouters[2].wlan[0].mac numSent 127
scalar UAVNetwork_Multi.hostRouters[2].wlan[0].mac numReceived 112
scalar UAVNetwork_Multi.hostRouters[2].wlan[0].mac numSentBroadcast 23
scalar UAVNetwork_Multi.hostRouters[2].wlan[0].mac numReceivedBroadcast 157
scalar UAVNetwork_Multi.hostRouters[2].wlan[0].mac packetDropIncorrectlyReceived:count 24
attr interpolationmode none
attr source packetDropReasonIsIncorrectlyReceived(packetDropped)
attr title "packet drop: incorrectly received, count"
scalar UAVNetwork_Multi.hostRouters[2].wlan[0].mac packetDropIncorrectlyReceived:sum(packetBytes) 1784
attr interpolationmode none
attr source packetDropReasonIsIncorrectlyReceived(packetDropped)
attr title "packet drop: incorrectly received, sum(packetBytes)"
scalar UAVNetwork_Multi.hostRouters[2].wlan[0].mac packetDropNotAddressedToUs:count 448
attr interpolationmode none
attr source packetDropReasonIsNotAddressedToUs(packetDropped)
attr title "packet drop: not addressed to us, count"
scalar UAVNetwork_Multi.hostRouters[2].wlan[0].mac packetDropNotAddressedToUs:sum(packetBytes) 41348
attr interpolationmode none
attr source packetDropReasonIsNotAddressedToUs(packetDropped)
attr title "packet drop: not addressed to us, sum(packetBytes)"
scalar UAVNetwork_Multi.hostRouters[2].wlan[0].mac packetDropQueueOverflow:count 0
attr interpolationmode none
attr source packetDropReasonIsQueueOverflow(packetDropped)
attr title "packet drop: queue overflow, count"
scalar UAVNetwork_Multi.hostRouters[2].wlan[0].mac packetDropQueueOverflow:sum(packetBytes) 0
attr interpolationmode none
attr source packetDropReasonIsQueueOverflow(packetDropped)
attr title "packet drop: queue overflow, sum(packetBytes)"
scalar UAVNetwork_Multi.hostRouters[2].wlan[0].mac packetDropRetryLimitReached:count 5
attr interpolationmode none
attr source packetDropReasonIsRetryLimitReached(packetDropped)
attr title "packet drop: retry limit reached, count"
scalar UAVNetwork_Multi.hostRouters[2].wlan[0].mac packetDropRetryLimitReached:sum(packetBytes) 408
attr interpolationmode none
attr source packetDropReasonIsRetryLimitReached(packetDropped)
attr title "packet drop: retry limit reached, sum(packetBytes)"
scalar UAVNetwork_Multi.hostRouters[2].wlan[0].mac linkBroken:count 5
attr interpolationmode none
attr source linkBroken
attr title "link break, count"
statistic UAVNetwork_Multi.hostRouters[2].wlan[0].radio minSnir:histogram
field count 1198
field mean 16.538004276798
field stddev 23.159724397905
field min 0.20995814388999
field max 181.39607085786
field sum 19812.529123604
field sqrsum 969697.97390208
attr source minimumSnir(packetSentToUpper)
attr title "Min SNIR, histogram"
bin	-inf	0
bin	0	161
bin	4	331
bin	8	247
bin	12	146
bin	16	80
bin	20	68
bin	24	25
bin	28	21
bin	32	16
bin	36	17
bin	40	3
bin	44	3
bin	48	6
bin	52	8
bin	56	3
bin	60	3
bin	64	10
bin	68	9
bin	72	4
bin	76	0
bin	80	8
bin	84	0
bin	88	3
bin	92	3
bin	96	2
bin	100	1
bin	104	2
bin	108	1
bin	112	0
bin	116	3
bin	120	0
bin	124	0
bin	128	3
bin	132	0
bin	136	0
bin	140	2
bin	144	0
bin	148	1
bin	152	0
bin	156	0
bin	160	0
bin	164	0
bin	168	0
bin	172	0
bin	176	6
bin	180	2
bin	184	0
statistic UAVNetwork_Multi.hostRouters[2].wlan[0].radio packetErrorRate:histogram
field count 1198
field mean 0.0025633105131062
field stddev 0.048215703746562
field min 0
field max 0.99999341470856
field sum 3.0708459947012
field sqrsum 2.7906021748905
attr source packetErrorRate(packetSentToUpper)
attr title "Packet error rate, histogram"
bin	-inf	0
bin	0	1194
bin	0.02	0
bin	0.04	0
bin	0.06	0
bin	0.08	0
bin	0.1	0
bin	0.12	0
bin	0.14	0
bin	0.16	0
bin	0.18	1
bin	0.2	0
bin	0.22	0
bin	0.24	0
bin	0.26	0
bin	0.28	0
bin	0.3	0
bin	0.32	0
bin	0.34	0
bin	0.36	0
bin	0.38	0
bin	0.4	0
bin	0.42	0
bin	0.44	0
bin	0.46	0
bin	0.48	0
bin	0.5	0
bin	0.52	0
bin	0.54	0
bin	0.56	0
bin	0.58	0
bin	0.6	0
bin	0.62	0
bin	0.64	0
bin	0.66	0
bin	0.68	0
bin	0.7	0
bin	0.72	0
bin	0.74	0
bin	0.76	0
bin	0.78	0
bin	0.8	0
bin	0.82	0
bin	0.84	0
bin	0.86	1
bin	0.88	0
bin	0.9	0
bin	0.92	0
bin	0.94	0
bin	0.96	0
bin	0.98	2
bin	1	0
statistic UAVNetwork_Multi.hostRouters[2].wlan[0].radio bitErrorRate:histogram
field count 1198
field mean 2.7403346381373e-005
field stddev 0.00064357954829127
field min 0
field max 0.020221969849241
field sum 0.032829208964884
field sqrsum 0.00049669060825431
attr source bitErrorRate(packetSentToUpper)
attr title "Bit error rate, histogram"
bin	-inf	0
bin	0	1195
bin	0.00045	0
bin	0.0009	0
bin	0.00135	0
bin	0.0018	0
bin	0.00225	0
bin	0.0027	0
bin	0.00315	1
bin	0.0036	0
bin	0.00405	0
bin	0.0045	0
bin	0.00495	0
bin	0.0054	0
bin	0.00585	0
bin	0.0063	0
bin	0.00675	0
bin	0.0072	0
bin	0.00765	0
bin	0.0081	0
bin	0.00855	1
bin	0.009	0
bin	0.00945	0
bin	0.0099	0
bin	0.01035	0
bin	0.0108	0
bin	0.01125	0
bin	0.0117	0
bin	0.01215	0
bin	0.0126	0
bin	0.01305	0
bin	0.0135	0
bin	0.01395	0
bin	0.0144	0
bin	0.01485	0
bin	0.0153	0
bin	0.01575	0
bin	0.0162	0
bin	0.01665	0
bin	0.0171	0
bin	0.01755	0
bin	0.018	0
bin	0.01845	0
bin	0.0189	0
bin	0.01935	0
bin	0.0198	1
bin	0.02025	0
statistic UAVNetwork_Multi.hostRouters[2].wlan[0].radio symbolErrorRate:histogram
field count 1198
field mean 2.7403346381373e-005
field stddev 0.00064357954829127
field min 0
field max 0.020221969849241
field sum 0.032829208964884
field sqrsum 0.00049669060825431
attr source symbolErrorRate(packetSentToUpper)
attr title "Symbol error rate, histogram"
bin	-inf	0
bin	0	1195
bin	0.00045	0
bin	0.0009	0
bin	0.00135	0
bin	0.0018	0
bin	0.00225	0
bin	0.0027	0
bin	0.00315	1
bin	0.0036	0
bin	0.00405	0
bin	0.0045	0
bin	0.00495	0
bin	0.0054	0
bin	0.00585	0
bin	0.0063	0
bin	0.00675	0
bin	0.0072	0
bin	0.00765	0
bin	0.0081	0
bin	0.00855	1
bin	0.009	0
bin	0.00945	0
bin	0.0099	0
bin	0.01035	0
bin	0.0108	0
bin	0.01125	0
bin	0.0117	0
bin	0.01215	0
bin	0.0126	0
bin	0.01305	0
bin	0.0135	0
bin	0.01395	0
bin	0.0144	0
bin	0.01485	0
bin	0.0153	0
bin	0.01575	0
bin	0.0162	0
bin	0.01665	0
bin	0.0171	0
bin	0.01755	0
bin	0.018	0
bin	0.01845	0
bin	0.0189	0
bin	0.01935	0
bin	0.0198	1
bin	0.02025	0
scalar UAVNetwork_Multi.hostRouters[2].wlan[0].radio transmissionState:count 1212
attr interpolationmode sample-hold
attr source transmissionStateChanged
attr title "Radio transmission state, count"
scalar UAVNetwork_Multi.hostRouters[2].wlan[0].radio receptionState:count 3457
attr interpolationmode sample-hold
attr source receptionStateChanged
attr title "Radio reception state, count"
scalar UAVNetwork_Multi.hostRouters[2].wlan[0].radio radioMode:count 609
attr interpolationmode sample-hold
attr source radioModeChanged
attr title "Radio mode, count"
scalar UAVNetwork_Multi.hostRouters[2].ipv4.ip packetDropAddressResolutionFailed:count 0
attr interpolationmode none
attr source packetDropReasonIsAddressResolutionFailed(packetDropped)
attr title "packet drop: address resolution failed, count"
scalar UAVNetwork_Multi.hostRouters[2].ipv4.ip packetDropAddressResolutionFailed:sum(packetBytes) 0
attr interpolationmode none
attr source packetDropReasonIsAddressResolutionFailed(packetDropped)
attr title "packet drop: address resolution failed, sum(packetBytes)"
scalar UAVNetwork_Multi.hostRouters[2].ipv4.ip packetDropHopLimitReached:count 0
attr interpolationmode none
attr source packetDropReasonIsHopLimitReached(packetDropped)
attr title "packet drop: hop limit reached, count"
scalar UAVNetwork_Multi.hostRouters[2].ipv4.ip packetDropHopLimitReached:sum(packetBytes) 0
attr interpolationmode none
attr source packetDropReasonIsHopLimitReached(packetDropped)
attr title "packet drop: hop limit reached, sum(packetBytes)"
scalar UAVNetwork_Multi.hostRouters[2].ipv4.ip packetDropForwardingDisabled:count 0
attr interpolationmode none
attr source packetDropReasonIsForwardingDisabled(packetDropped)
attr title "packet drop: forwarding disabled, count"
scalar UAVNetwork_Multi.hostRouters[2].ipv4.ip packetDropForwardingDisabled:sum(packetBytes) 0
attr interpolationmode none
attr source packetDropReasonIsForwardingDisabled(packetDropped)
attr title "packet drop: forwarding disabled, sum(packetBytes)"
scalar UAVNetwork_Multi.hostRouters[2].ipv4.ip packetDropNoInterfaceFound:count 0
attr interpolationmode none
attr source packetDropReasonIsNoInterfaceFound(packetDropped)
attr title "packet drop: no interface found, count"
scalar UAVNetwork_Multi.hostRouters[2].ipv4.ip packetDropNoInterfaceFound:sum(packetBytes) 0
attr interpolationmode none
attr source packetDropReasonIsNoInterfaceFound(packetDropped)
attr title "packet drop: no interface found, sum(packetBytes)"
scalar UAVNetwork_Multi.hostRouters[2].ipv4.ip packetDropNoRouteFound:count 0
attr interpolationmode none
attr source packetDropReasonIsNoRouteFound(packetDropped)
attr title "packet drop: no route found, count"
scalar UAVNetwork_Multi.hostRouters[2].ipv4.ip packetDropNoRouteFound:sum(packetBytes) 0
attr interpolationmode none
attr source packetDropReasonIsNoRouteFound(packetDropped)
attr title "packet drop: no route found, sum(packetBytes)"
scalar UAVNetwork_Multi.hostRouters[2].ipv4.ip packetDropUndefined:count 0
attr interpolationmode none
attr source packetDropReasonIsUndefined(packetDropped)
attr title "packet drop: undefined, count"
scalar UAVNetwork_Multi.hostRouters[2].ipv4.ip packetDropUndefined:sum(packetBytes) 0
attr interpolationmode none
attr source packetDropReasonIsUndefined(packetDropped)
attr title "packet drop: undefined, sum(packetBytes)"
scalar UAVNetwork_Multi.hostRouters[2].udp packetReceived:count 0
attr interpolationmode none
attr source packetReceived
attr title "packets received, count"
scalar UAVNetwork_Multi.hostRouters[2].udp packetReceived:sum(packetBytes) 0
attr interpolationmode none
attr source packetReceived
attr title "packets received, sum(packetBytes)"
scalar UAVNetwork_Multi.hostRouters[2].udp packetSent:count 0
attr interpolationmode none
attr source packetSent
attr title "packets sent, count"
scalar UAVNetwork_Multi.hostRouters[2].udp packetSent:sum(packetBytes) 0
attr interpolationmode none
attr source packetSent
attr title "packets sent, sum(packetBytes)"
scalar UAVNetwork_Multi.hostRouters[2].udp passedUpPk:count 0
attr interpolationmode none
attr source packetSentToUpper
attr title "packets passed up, count"
scalar UAVNetwork_Multi.hostRouters[2].udp droppedPkWrongPort:count 0
attr interpolationmode none
attr source packetDropReasonIsNoPortFound(packetDropped)
attr title "packets dropped (wrong port), count"
scalar UAVNetwork_Multi.hostRouters[2].udp droppedPkBadChecksum:count 0
attr interpolationmode none
attr source packetDropReasonIsIncorrectlyReceived(packetDropped)
attr title "packets dropped (checksum error), count"
scalar UAVNetwork_Multi.hostRouters[2].app[0] "Pings sent" 38
scalar UAVNetwork_Multi.hostRouters[2].app[0] "ping loss rate (%)" 23.684210526316
scalar UAVNetwork_Multi.hostRouters[2].app[0] "ping out-of-order rate (%)" 7.8947368421053
scalar UAVNetwork_Multi.hostRouters[2].app[0] pingRxSeq:count 32
attr interpolationmode none
attr title "ping rx seq, count"
scalar UAVNetwork_Multi.hostRouters[2].app[0] pingTxSeq:count 38
attr interpolationmode none
attr title "ping tx seq, count"
scalar UAVNetwork_Multi.hostRouters[2].app[0] numOutOfOrderArrivals:last 3
attr interpolationmode none
attr title "ping out-of-order arrivals, last"
scalar UAVNetwork_Multi.hostRouters[2].app[0] numLost:last 8
attr interpolationmode none
attr title "pings lost, last"
statistic UAVNetwork_Multi.hostRouters[2].app[0] rtt:histogram
field count 29
field mean 0.010118939450172
field stddev 0.037811665787352
field min 0.002086220323
field max 0.206369593324
field sum 0.293449244055
field sqrsum 0.043001613081495
attr interpolationmode none
attr title "ping round-trip time, histogram"
attr unit s
bin	-inf	0
bin	0	26
bin	0.005	1
bin	0.01	1
bin	0.015	0
bin	0.02	0
bin	0.025	0
bin	0.03	0
bin	0.035	0
bin	0.04	0
bin	0.045	0
bin	0.05	0
bin	0.055	0
bin	0.06	0
bin	0.065	0
bin	0.07	0
bin	0.075	0
bin	0.08	0
bin	0.085	0
bin	0.09	0
bin	0.095	0
bin	0.1	0
bin	0.105	0
bin	0.11	0
bin	0.115	0
bin	0.12	0
bin	0.125	0
bin	0.13	0
bin	0.135	0
bin	0.14	0
bin	0.145	0
bin	0.15	0
bin	0.155	0
bin	0.16	0
bin	0.165	0
bin	0.17	0
bin	0.175	0
bin	0.18	0
bin	0.185	0
bin	0.19	0
bin	0.195	0
bin	0.2	0
bin	0.205	1
bin	0.21	0
bin	0.215	0
bin	0.22	0
bin	0.225	0
bin	0.23	0
bin	0.235	0
bin	0.24	0
bin	0.245	0
bin	0.25	0
bin	0.255	0
bin	0.26	0

