version 2
run General-3-20210106-16:33:07-3664
attr configname General
attr datetime 20210106-16:33:07
attr experiment General
attr inifile multi_test_only_basicNode.ini
attr iterationvars "$pathlosstype=\"LogNormalShadowing\""
attr iterationvarsf pathlosstype=LogNormalShadowing-
attr measurement "$pathlosstype=\"LogNormalShadowing\""
attr network myuav.UAVNetwork_OnlyBasicNode
attr processid 3664
attr repetition 0
attr replication #0
attr resultdir results
attr runnumber 3
attr seedset 3
itervar pathlosstype "\"LogNormalShadowing\""
param *.configurator.addStaticRoutes false
param **.arp.typename "\"GlobalArp\""
param **.basicHosts[*].forwarding true
param **.basicHosts[*].multicastForwarding true
param *.numHosts 30
param *.configurator.config "xmldoc(\"multi_test.xml\")"
param *.configurator.dumpAddresses true
param *.configurator.dumpTopology true
param *.configurator.dumpLinks true
param *.configurator.dumpRoutes true
param *.configurator.dumpConfig "\"multi_test_dump.xml\""
param *.visualizer.osgVisualizer.typename "\"IntegratedOsgVisualizer\""
param *.visualizer.osgVisualizer.sceneVisualizer.clearColor "\"skyblue\""
param *.visualizer.osgVisualizer.sceneVisualizer.sceneImage "\"showcases/desert\""
param *.visualizer.osgVisualizer.sceneVisualizer.sceneImageSize 2000m
param *.visualizer.osgVisualizer.sceneVisualizer.axisLength 500m
param *.visualizer.osgVisualizer.sceneVisualizer.sceneMinX 0m
param *.visualizer.osgVisualizer.sceneVisualizer.sceneMinY 0m
param *.visualizer.osgVisualizer.sceneVisualizer.sceneMinZ 0m
param *.visualizer.osgVisualizer.sceneVisualizer.sceneMaxX 2000m
param *.visualizer.osgVisualizer.sceneVisualizer.sceneMaxY 2000m
param *.visualizer.osgVisualizer.sceneVisualizer.sceneMaxZ 1000m
param *.visualizer.*.mobilityVisualizer.displayMovementTrails true
param *.visualizer.*.mobilityVisualizer.animationSpeed 1
param *.basicHosts[*].wlan[0].typename "\"WirelessInterface\""
param *.basicHosts[*].wlan[0].mac.typename "\"CsmaCaMac\""
param *.basicHosts[*].wlan[0].mac.ackTimeout 300us
param **.wlan[*].queue.typename "\"DropTailQueue\""
param *.basicHosts[*].wlan[0].mac.maxQueueSize 10000
param *.radioMedium.typename "\"ApskScalarRadioMedium\""
param *.radioMedium.backgroundNoise.power -90dBm
param *.radioMedium.mediumLimitCache.carrierFrequency 2GHz
param *.basicHosts[*].wlan[0].radio.typename "\"ApskScalarRadio\""
param *.basicHosts[*].wlan[0].radio.carrierFrequency 2GHz
param **.ignorePartialInterference true
param *.basicHosts[*].wlan[0].radio.bandwidth 10MHz
param *.basicHosts[*].wlan[0].radio.transmitter.preambleDuration 10us
param *.basicHosts[*].wlan[0].radio.transmitter.headerLength 8b
param *.basicHosts[*].wlan[0].radio.receiver.sensitivity -85dBm
param *.basicHosts[*].wlan[0].radio.receiver.energyDetection -85dBm
param *.basicHosts[*].wlan[0].radio.receiver.snirThreshold 4dB
param **.basicHosts[*].**.bitrate 1Mbps
param **.basicHosts[*].wlan[*].radio.transmitter.power 15mW
param *.radioMedium.pathLoss.typename "\"LogNormalShadowing\""
param *.physicalEnvironment.coordinateSystemModule "\"coordinateSystem\""
param *.*.mobility.coordinateSystemModule "\"coordinateSystem\""
param *.physicalEnvironment.config "xmldoc(\"obstacles.xml\")"
param *.radioMedium.obstacleLoss.typename "\"DielectricObstacleLoss\""
param **.basicHosts[*].app[*].typename "\"PingApp\""
param *.basicHosts[*].numApps 1
param **.basicHosts[*].app[*].count 1
param **.basicHosts[*].app[*].continuous true
param **.basicHosts[*].app[*].destAddr "\"*\""
param **.basicHosts[*].app[*].startTime uniform(3s,4s)
param **.basicHosts[*].app[*].printPing true
param **.basicHosts[*].mobility.typename "\"MassMobility\""
param **.basicHosts[*].mobility.initFromDisplayString false
param **.basicHosts[*].osgModel "\"3d/drone.ive.20.scale.0,0,90.rot\""
param **.basicHosts[*].mobility.initialMovementHeading "uniform(0deg, 360deg)"
param **.basicHosts[*].mobility.initialMovementElevation "uniform(-90deg, 90deg)"
param **.basicHosts[*].mobility.rotationAxisAngle uniform(-10deg,10deg)
param **.basicHosts[*].mobility.faceForward false
param **.basicHosts[*].mobility.speed "truncnormal(20mps, 4mps)"
param **.basicHosts[*].mobility.changeInterval "truncnormal(3s, 1s)"
param **.basicHosts[*].mobility.angleDelta "normal(-10deg, 10deg)"
param **.basicHosts[*].mobility.initialZ 200m
param **.basicHosts[*].mobility.constraintAreaMinZ 100m
param **.basicHosts[*].mobility.constraintAreaMaxZ 300m
param **.basicHosts[*].mobility.constraintAreaMinX 200m
param **.basicHosts[*].mobility.constraintAreaMaxX 1300m
param **.basicHosts[*].mobility.constraintAreaMinY 200m
param **.basicHosts[*].mobility.constraintAreaMaxY 1300m
param **.basicHosts[0].mobility.getOthersPosition true
param **.basicHosts[0].mobility.basicNodeNum 30
param **.basicHosts[0].mobility.routerNodeNum 0
param **.basicHosts[0].mobility.getAllNodeStatusInterval 0.01s
param **.basicHosts[0].mobility.networkName "\"UAVNetwork_OnlyBasicNode\""
param **.basicHosts[*].app[*].allowPingCluster true
param **.basicHosts[*].app[*].choosePingClusterPercent 99

scalar UAVNetwork_OnlyBasicNode.radioMedium.propagation "Arrival computation count" 614133
scalar UAVNetwork_OnlyBasicNode.radioMedium.obstacleLoss "Obstacle loss intersection computation count" 1842348
scalar UAVNetwork_OnlyBasicNode.radioMedium.obstacleLoss "Obstacle loss intersection count" 128835
scalar UAVNetwork_OnlyBasicNode.radioMedium "transmission count" 21177
scalar UAVNetwork_OnlyBasicNode.radioMedium "signal send count" 614133
scalar UAVNetwork_OnlyBasicNode.radioMedium "reception computation count" 614116
scalar UAVNetwork_OnlyBasicNode.radioMedium "interference computation count" 1736850
scalar UAVNetwork_OnlyBasicNode.radioMedium "reception decision computation count" 387058
scalar UAVNetwork_OnlyBasicNode.radioMedium "listening decision computation count" 741253
scalar UAVNetwork_OnlyBasicNode.radioMedium "reception cache hit" 84.212757435762
attr unit %
scalar UAVNetwork_OnlyBasicNode.radioMedium "interference cache hit" 66.666666666667
attr unit %
scalar UAVNetwork_OnlyBasicNode.radioMedium "noise cache hit" 0
attr unit %
scalar UAVNetwork_OnlyBasicNode.radioMedium "snir cache hit" 50
attr unit %
scalar UAVNetwork_OnlyBasicNode.radioMedium "reception decision cache hit" 50
attr unit %
scalar UAVNetwork_OnlyBasicNode.radioMedium "reception result cache hit" 0
attr unit %
scalar UAVNetwork_OnlyBasicNode.basicHosts[0].lo[0].lo rcvdPkFromHl:count 2
attr interpolationmode none
attr source packetReceivedFromUpper
attr title "packets received from higher layer, count"
scalar UAVNetwork_OnlyBasicNode.basicHosts[0].lo[0].lo rcvdPkFromHl:sum(packetBytes) 168
attr interpolationmode none
attr source packetReceivedFromUpper
attr title "packets received from higher layer, sum(packetBytes)"
scalar UAVNetwork_OnlyBasicNode.basicHosts[0].lo[0].lo passedUpPk:count 2
attr interpolationmode none
attr source packetSentToUpper
attr title "packets passed to higher layer, count"
scalar UAVNetwork_OnlyBasicNode.basicHosts[0].lo[0].lo passedUpPk:sum(packetBytes) 168
attr interpolationmode none
attr source packetSentToUpper
attr title "packets passed to higher layer, sum(packetBytes)"
scalar UAVNetwork_OnlyBasicNode.basicHosts[0].wlan[0].mac numRetry 222
scalar UAVNetwork_OnlyBasicNode.basicHosts[0].wlan[0].mac numSentWithoutRetry 100
scalar UAVNetwork_OnlyBasicNode.basicHosts[0].wlan[0].mac numGivenUp 13
scalar UAVNetwork_OnlyBasicNode.basicHosts[0].wlan[0].mac numCollision 1303
scalar UAVNetwork_OnlyBasicNode.basicHosts[0].wlan[0].mac numSent 143
scalar UAVNetwork_OnlyBasicNode.basicHosts[0].wlan[0].mac numReceived 194
scalar UAVNetwork_OnlyBasicNode.basicHosts[0].wlan[0].mac numSentBroadcast 154
scalar UAVNetwork_OnlyBasicNode.basicHosts[0].wlan[0].mac numReceivedBroadcast 1950
scalar UAVNetwork_OnlyBasicNode.basicHosts[0].wlan[0].mac packetDropIncorrectlyReceived:count 1303
attr interpolationmode none
attr source packetDropReasonIsIncorrectlyReceived(packetDropped)
attr title "packet drop: incorrectly received, count"
scalar UAVNetwork_OnlyBasicNode.basicHosts[0].wlan[0].mac packetDropIncorrectlyReceived:sum(packetBytes) 90131
attr interpolationmode none
attr source packetDropReasonIsIncorrectlyReceived(packetDropped)
attr title "packet drop: incorrectly received, sum(packetBytes)"
scalar UAVNetwork_OnlyBasicNode.basicHosts[0].wlan[0].mac packetDropNotAddressedToUs:count 4510
attr interpolationmode none
attr source packetDropReasonIsNotAddressedToUs(packetDropped)
attr title "packet drop: not addressed to us, count"
scalar UAVNetwork_OnlyBasicNode.basicHosts[0].wlan[0].mac packetDropNotAddressedToUs:sum(packetBytes) 404764
attr interpolationmode none
attr source packetDropReasonIsNotAddressedToUs(packetDropped)
attr title "packet drop: not addressed to us, sum(packetBytes)"
scalar UAVNetwork_OnlyBasicNode.basicHosts[0].wlan[0].mac packetDropQueueOverflow:count 0
attr interpolationmode none
attr source packetDropReasonIsQueueOverflow(packetDropped)
attr title "packet drop: queue overflow, count"
scalar UAVNetwork_OnlyBasicNode.basicHosts[0].wlan[0].mac packetDropQueueOverflow:sum(packetBytes) 0
attr interpolationmode none
attr source packetDropReasonIsQueueOverflow(packetDropped)
attr title "packet drop: queue overflow, sum(packetBytes)"
scalar UAVNetwork_OnlyBasicNode.basicHosts[0].wlan[0].mac packetDropRetryLimitReached:count 13
attr interpolationmode none
attr source packetDropReasonIsRetryLimitReached(packetDropped)
attr title "packet drop: retry limit reached, count"
scalar UAVNetwork_OnlyBasicNode.basicHosts[0].wlan[0].mac packetDropRetryLimitReached:sum(packetBytes) 1060
attr interpolationmode none
attr source packetDropReasonIsRetryLimitReached(packetDropped)
attr title "packet drop: retry limit reached, sum(packetBytes)"
scalar UAVNetwork_OnlyBasicNode.basicHosts[0].wlan[0].mac linkBroken:count 13
attr interpolationmode none
attr source linkBroken
attr title "link break, count"
statistic UAVNetwork_OnlyBasicNode.basicHosts[0].wlan[0].radio minSnir:histogram
field count 11160
field mean 17.791673503407
field stddev 62.193734477898
field min 0.012355576980538
field max 2200.0780047708
field sum 198555.07629803
field sqrsum 46696315.41804
attr source minimumSnir(packetSentToUpper)
attr title "Min SNIR, histogram"
bin	-inf	0
bin	0	10522
bin	48	361
bin	96	103
bin	144	43
bin	192	36
bin	240	28
bin	288	17
bin	336	8
bin	384	15
bin	432	2
bin	480	6
bin	528	3
bin	576	1
bin	624	3
bin	672	0
bin	720	0
bin	768	0
bin	816	0
bin	864	1
bin	912	1
bin	960	1
bin	1008	0
bin	1056	2
bin	1104	1
bin	1152	0
bin	1200	0
bin	1248	0
bin	1296	0
bin	1344	0
bin	1392	0
bin	1440	0
bin	1488	0
bin	1536	1
bin	1584	0
bin	1632	0
bin	1680	1
bin	1728	0
bin	1776	0
bin	1824	1
bin	1872	0
bin	1920	1
bin	1968	1
bin	2016	0
bin	2064	0
bin	2112	0
bin	2160	1
bin	2208	0
statistic UAVNetwork_OnlyBasicNode.basicHosts[0].wlan[0].radio packetErrorRate:histogram
field count 11160
field mean 0.017713361342927
field stddev 0.12212199340686
field min 0
field max 1
field sum 197.68111258707
field sqrsum 169.92448221076
attr source packetErrorRate(packetSentToUpper)
attr title "Packet error rate, histogram"
bin	-inf	0
bin	0	10797
bin	0.02	39
bin	0.04	22
bin	0.06	19
bin	0.08	15
bin	0.1	17
bin	0.12	5
bin	0.14	5
bin	0.16	8
bin	0.18	2
bin	0.2	5
bin	0.22	6
bin	0.24	4
bin	0.26	6
bin	0.28	4
bin	0.3	4
bin	0.32	8
bin	0.34	2
bin	0.36	2
bin	0.38	0
bin	0.4	1
bin	0.42	2
bin	0.44	3
bin	0.46	2
bin	0.48	1
bin	0.5	1
bin	0.52	1
bin	0.54	1
bin	0.56	2
bin	0.58	2
bin	0.6	1
bin	0.62	1
bin	0.64	3
bin	0.66	1
bin	0.68	1
bin	0.7	1
bin	0.72	2
bin	0.74	2
bin	0.76	1
bin	0.78	3
bin	0.8	1
bin	0.82	1
bin	0.84	3
bin	0.86	2
bin	0.88	3
bin	0.9	2
bin	0.92	5
bin	0.94	3
bin	0.96	9
bin	0.98	70
bin	1	59
bin	1.02	0
bin	1.04	0
bin	1.06	0
bin	1.08	0
bin	1.1	0
bin	1.12	0
bin	1.14	0
bin	1.16	0
bin	1.18	0
bin	1.2	0
bin	1.22	0
bin	1.24	0
bin	1.26	0
statistic UAVNetwork_OnlyBasicNode.basicHosts[0].wlan[0].radio bitErrorRate:histogram
field count 11160
field mean 0.0010691476842712
field stddev 0.012959268848348
field min 0
field max 0.30955815746181
field sum 11.931688156467
field sqrsum 1.8868287578875
attr source bitErrorRate(packetSentToUpper)
attr title "Bit error rate, histogram"
bin	-inf	0
bin	0	11019
bin	0.005	20
bin	0.01	17
bin	0.015	7
bin	0.02	11
bin	0.025	5
bin	0.03	3
bin	0.035	3
bin	0.04	3
bin	0.045	3
bin	0.05	1
bin	0.055	2
bin	0.06	2
bin	0.065	2
bin	0.07	1
bin	0.075	5
bin	0.08	2
bin	0.085	3
bin	0.09	1
bin	0.095	0
bin	0.1	1
bin	0.105	1
bin	0.11	3
bin	0.115	0
bin	0.12	0
bin	0.125	3
bin	0.13	4
bin	0.135	1
bin	0.14	2
bin	0.145	2
bin	0.15	1
bin	0.155	2
bin	0.16	2
bin	0.165	2
bin	0.17	2
bin	0.175	0
bin	0.18	3
bin	0.185	1
bin	0.19	3
bin	0.195	3
bin	0.2	1
bin	0.205	2
bin	0.21	0
bin	0.215	0
bin	0.22	1
bin	0.225	1
bin	0.23	1
bin	0.235	0
bin	0.24	0
bin	0.245	1
bin	0.25	2
bin	0.255	1
bin	0.26	0
bin	0.265	1
bin	0.27	1
bin	0.275	0
bin	0.28	1
bin	0.285	0
bin	0.29	0
bin	0.295	0
bin	0.3	0
bin	0.305	1
bin	0.31	0
statistic UAVNetwork_OnlyBasicNode.basicHosts[0].wlan[0].radio symbolErrorRate:histogram
field count 11160
field mean 0.0010691476842712
field stddev 0.012959268848348
field min 0
field max 0.30955815746181
field sum 11.931688156467
field sqrsum 1.8868287578875
attr source symbolErrorRate(packetSentToUpper)
attr title "Symbol error rate, histogram"
bin	-inf	0
bin	0	11019
bin	0.005	20
bin	0.01	17
bin	0.015	7
bin	0.02	11
bin	0.025	5
bin	0.03	3
bin	0.035	3
bin	0.04	3
bin	0.045	3
bin	0.05	1
bin	0.055	2
bin	0.06	2
bin	0.065	2
bin	0.07	1
bin	0.075	5
bin	0.08	2
bin	0.085	3
bin	0.09	1
bin	0.095	0
bin	0.1	1
bin	0.105	1
bin	0.11	3
bin	0.115	0
bin	0.12	0
bin	0.125	3
bin	0.13	4
bin	0.135	1
bin	0.14	2
bin	0.145	2
bin	0.15	1
bin	0.155	2
bin	0.16	2
bin	0.165	2
bin	0.17	2
bin	0.175	0
bin	0.18	3
bin	0.185	1
bin	0.19	3
bin	0.195	3
bin	0.2	1
bin	0.205	2
bin	0.21	0
bin	0.215	0
bin	0.22	1
bin	0.225	1
bin	0.23	1
bin	0.235	0
bin	0.24	0
bin	0.245	1
bin	0.25	2
bin	0.255	1
bin	0.26	0
bin	0.265	1
bin	0.27	1
bin	0.275	0
bin	0.28	1
bin	0.285	0
bin	0.29	0
bin	0.295	0
bin	0.3	0
bin	0.305	1
bin	0.31	0
scalar UAVNetwork_OnlyBasicNode.basicHosts[0].wlan[0].radio transmissionState:count 2904
attr interpolationmode sample-hold
attr source transmissionStateChanged
attr title "Radio transmission state, count"
scalar UAVNetwork_OnlyBasicNode.basicHosts[0].wlan[0].radio receptionState:count 29489
attr interpolationmode sample-hold
attr source receptionStateChanged
attr title "Radio reception state, count"
scalar UAVNetwork_OnlyBasicNode.basicHosts[0].wlan[0].radio radioMode:count 1455
attr interpolationmode sample-hold
attr source radioModeChanged
attr title "Radio mode, count"
scalar UAVNetwork_OnlyBasicNode.basicHosts[0].ipv4.ip packetDropAddressResolutionFailed:count 0
attr interpolationmode none
attr source packetDropReasonIsAddressResolutionFailed(packetDropped)
attr title "packet drop: address resolution failed, count"
scalar UAVNetwork_OnlyBasicNode.basicHosts[0].ipv4.ip packetDropAddressResolutionFailed:sum(packetBytes) 0
attr interpolationmode none
attr source packetDropReasonIsAddressResolutionFailed(packetDropped)
attr title "packet drop: address resolution failed, sum(packetBytes)"
scalar UAVNetwork_OnlyBasicNode.basicHosts[0].ipv4.ip packetDropHopLimitReached:count 0
attr interpolationmode none
attr source packetDropReasonIsHopLimitReached(packetDropped)
attr title "packet drop: hop limit reached, count"
scalar UAVNetwork_OnlyBasicNode.basicHosts[0].ipv4.ip packetDropHopLimitReached:sum(packetBytes) 0
attr interpolationmode none
attr source packetDropReasonIsHopLimitReached(packetDropped)
attr title "packet drop: hop limit reached, sum(packetBytes)"
scalar UAVNetwork_OnlyBasicNode.basicHosts[0].ipv4.ip packetDropForwardingDisabled:count 0
attr interpolationmode none
attr source packetDropReasonIsForwardingDisabled(packetDropped)
attr title "packet drop: forwarding disabled, count"
scalar UAVNetwork_OnlyBasicNode.basicHosts[0].ipv4.ip packetDropForwardingDisabled:sum(packetBytes) 0
attr interpolationmode none
attr source packetDropReasonIsForwardingDisabled(packetDropped)
attr title "packet drop: forwarding disabled, sum(packetBytes)"
scalar UAVNetwork_OnlyBasicNode.basicHosts[0].ipv4.ip packetDropNoInterfaceFound:count 0
attr interpolationmode none
attr source packetDropReasonIsNoInterfaceFound(packetDropped)
attr title "packet drop: no interface found, count"
scalar UAVNetwork_OnlyBasicNode.basicHosts[0].ipv4.ip packetDropNoInterfaceFound:sum(packetBytes) 0
attr interpolationmode none
attr source packetDropReasonIsNoInterfaceFound(packetDropped)
attr title "packet drop: no interface found, sum(packetBytes)"
scalar UAVNetwork_OnlyBasicNode.basicHosts[0].ipv4.ip packetDropNoRouteFound:count 0
attr interpolationmode none
attr source packetDropReasonIsNoRouteFound(packetDropped)
attr title "packet drop: no route found, count"
scalar UAVNetwork_OnlyBasicNode.basicHosts[0].ipv4.ip packetDropNoRouteFound:sum(packetBytes) 0
attr interpolationmode none
attr source packetDropReasonIsNoRouteFound(packetDropped)
attr title "packet drop: no route found, sum(packetBytes)"
scalar UAVNetwork_OnlyBasicNode.basicHosts[0].ipv4.ip packetDropUndefined:count 0
attr interpolationmode none
attr source packetDropReasonIsUndefined(packetDropped)
attr title "packet drop: undefined, count"
scalar UAVNetwork_OnlyBasicNode.basicHosts[0].ipv4.ip packetDropUndefined:sum(packetBytes) 0
attr interpolationmode none
attr source packetDropReasonIsUndefined(packetDropped)
attr title "packet drop: undefined, sum(packetBytes)"
scalar UAVNetwork_OnlyBasicNode.basicHosts[0].udp packetReceived:count 0
attr interpolationmode none
attr source packetReceived
attr title "packets received, count"
scalar UAVNetwork_OnlyBasicNode.basicHosts[0].udp packetReceived:sum(packetBytes) 0
attr interpolationmode none
attr source packetReceived
attr title "packets received, sum(packetBytes)"
scalar UAVNetwork_OnlyBasicNode.basicHosts[0].udp packetSent:count 0
attr interpolationmode none
attr source packetSent
attr title "packets sent, count"
scalar UAVNetwork_OnlyBasicNode.basicHosts[0].udp packetSent:sum(packetBytes) 0
attr interpolationmode none
attr source packetSent
attr title "packets sent, sum(packetBytes)"
scalar UAVNetwork_OnlyBasicNode.basicHosts[0].udp passedUpPk:count 0
attr interpolationmode none
attr source packetSentToUpper
attr title "packets passed up, count"
scalar UAVNetwork_OnlyBasicNode.basicHosts[0].udp droppedPkWrongPort:count 0
attr interpolationmode none
attr source packetDropReasonIsNoPortFound(packetDropped)
attr title "packets dropped (wrong port), count"
scalar UAVNetwork_OnlyBasicNode.basicHosts[0].udp droppedPkBadChecksum:count 0
attr interpolationmode none
attr source packetDropReasonIsIncorrectlyReceived(packetDropped)
attr title "packets dropped (checksum error), count"
scalar UAVNetwork_OnlyBasicNode.basicHosts[0].app[0] "Pings sent" 50
scalar UAVNetwork_OnlyBasicNode.basicHosts[0].app[0] "ping loss rate (%)" 4
scalar UAVNetwork_OnlyBasicNode.basicHosts[0].app[0] "ping out-of-order rate (%)" 46
scalar UAVNetwork_OnlyBasicNode.basicHosts[0].app[0] pingRxSeq:count 71
attr interpolationmode none
attr title "ping rx seq, count"
scalar UAVNetwork_OnlyBasicNode.basicHosts[0].app[0] pingTxSeq:count 50
attr interpolationmode none
attr title "ping tx seq, count"
scalar UAVNetwork_OnlyBasicNode.basicHosts[0].app[0] numOutOfOrderArrivals:last 23
attr interpolationmode none
attr title "ping out-of-order arrivals, last"
scalar UAVNetwork_OnlyBasicNode.basicHosts[0].app[0] numLost:last 2
attr interpolationmode none
attr title "pings lost, last"
statistic UAVNetwork_OnlyBasicNode.basicHosts[0].app[0] rtt:histogram
field count 47
field mean 0.033519108379234
field stddev 0.073324893203008
field min 0.00216728506
field max 0.354655573152
field sum 1.575398093824
field sqrsum 0.30012677775602
attr interpolationmode none
attr title "ping round-trip time, histogram"
attr unit s
bin	-inf	0
bin	0	21
bin	0.005	5
bin	0.01	4
bin	0.015	4
bin	0.02	2
bin	0.025	1
bin	0.03	3
bin	0.035	0
bin	0.04	0
bin	0.045	0
bin	0.05	1
bin	0.055	1
bin	0.06	0
bin	0.065	0
bin	0.07	0
bin	0.075	0
bin	0.08	0
bin	0.085	0
bin	0.09	0
bin	0.095	0
bin	0.1	1
bin	0.105	0
bin	0.11	1
bin	0.115	0
bin	0.12	0
bin	0.125	0
bin	0.13	0
bin	0.135	0
bin	0.14	0
bin	0.145	0
bin	0.15	0
bin	0.155	0
bin	0.16	0
bin	0.165	0
bin	0.17	1
bin	0.175	0
bin	0.18	0
bin	0.185	0
bin	0.19	0
bin	0.195	0
bin	0.2	0
bin	0.205	0
bin	0.21	0
bin	0.215	0
bin	0.22	0
bin	0.225	0
bin	0.23	0
bin	0.235	0
bin	0.24	0
bin	0.245	0
bin	0.25	0
bin	0.255	0
bin	0.26	0
bin	0.265	0
bin	0.27	0
bin	0.275	0
bin	0.28	0
bin	0.285	0
bin	0.29	0
bin	0.295	0
bin	0.3	0
bin	0.305	0
bin	0.31	0
bin	0.315	0
bin	0.32	0
bin	0.325	1
bin	0.33	0
bin	0.335	0
bin	0.34	0
bin	0.345	0
bin	0.35	1
bin	0.355	0
bin	0.36	0
bin	0.365	0
bin	0.37	0
bin	0.375	0
bin	0.38	0
bin	0.385	0
bin	0.39	0
bin	0.395	0
bin	0.4	0
bin	0.405	0
bin	0.41	0
bin	0.415	0
bin	0.42	0
bin	0.425	0
bin	0.43	0
bin	0.435	0
bin	0.44	0
bin	0.445	0
scalar UAVNetwork_OnlyBasicNode.basicHosts[1].lo[0].lo rcvdPkFromHl:count 2
attr interpolationmode none
attr source packetReceivedFromUpper
attr title "packets received from higher layer, count"
scalar UAVNetwork_OnlyBasicNode.basicHosts[1].lo[0].lo rcvdPkFromHl:sum(packetBytes) 168
attr interpolationmode none
attr source packetReceivedFromUpper
attr title "packets received from higher layer, sum(packetBytes)"
scalar UAVNetwork_OnlyBasicNode.basicHosts[1].lo[0].lo passedUpPk:count 2
attr interpolationmode none
attr source packetSentToUpper
attr title "packets passed to higher layer, count"
scalar UAVNetwork_OnlyBasicNode.basicHosts[1].lo[0].lo passedUpPk:sum(packetBytes) 168
attr interpolationmode none
attr source packetSentToUpper
attr title "packets passed to higher layer, sum(packetBytes)"
scalar UAVNetwork_OnlyBasicNode.basicHosts[1].wlan[0].mac numRetry 161
scalar UAVNetwork_OnlyBasicNode.basicHosts[1].wlan[0].mac numSentWithoutRetry 131
scalar UAVNetwork_OnlyBasicNode.basicHosts[1].wlan[0].mac numGivenUp 5
scalar UAVNetwork_OnlyBasicNode.basicHosts[1].wlan[0].mac numCollision 1248
scalar UAVNetwork_OnlyBasicNode.basicHosts[1].wlan[0].mac numSent 179
scalar UAVNetwork_OnlyBasicNode.basicHosts[1].wlan[0].mac numReceived 174
scalar UAVNetwork_OnlyBasicNode.basicHosts[1].wlan[0].mac numSentBroadcast 138
scalar UAVNetwork_OnlyBasicNode.basicHosts[1].wlan[0].mac numReceivedBroadcast 2103
scalar UAVNetwork_OnlyBasicNode.basicHosts[1].wlan[0].mac packetDropIncorrectlyReceived:count 1248
attr interpolationmode none
attr source packetDropReasonIsIncorrectlyReceived(packetDropped)
attr title "packet drop: incorrectly received, count"
scalar UAVNetwork_OnlyBasicNode.basicHosts[1].wlan[0].mac packetDropIncorrectlyReceived:sum(packetBytes) 85506
attr interpolationmode none
attr source packetDropReasonIsIncorrectlyReceived(packetDropped)
attr title "packet drop: incorrectly received, sum(packetBytes)"
scalar UAVNetwork_OnlyBasicNode.basicHosts[1].wlan[0].mac packetDropNotAddressedToUs:count 5623
attr interpolationmode none
attr source packetDropReasonIsNotAddressedToUs(packetDropped)
attr title "packet drop: not addressed to us, count"
scalar UAVNetwork_OnlyBasicNode.basicHosts[1].wlan[0].mac packetDropNotAddressedToUs:sum(packetBytes) 503432
attr interpolationmode none
attr source packetDropReasonIsNotAddressedToUs(packetDropped)
attr title "packet drop: not addressed to us, sum(packetBytes)"
scalar UAVNetwork_OnlyBasicNode.basicHosts[1].wlan[0].mac packetDropQueueOverflow:count 0
attr interpolationmode none
attr source packetDropReasonIsQueueOverflow(packetDropped)
attr title "packet drop: queue overflow, count"
scalar UAVNetwork_OnlyBasicNode.basicHosts[1].wlan[0].mac packetDropQueueOverflow:sum(packetBytes) 0
attr interpolationmode none
attr source packetDropReasonIsQueueOverflow(packetDropped)
attr title "packet drop: queue overflow, sum(packetBytes)"
scalar UAVNetwork_OnlyBasicNode.basicHosts[1].wlan[0].mac packetDropRetryLimitReached:count 5
attr interpolationmode none
attr source packetDropReasonIsRetryLimitReached(packetDropped)
attr title "packet drop: retry limit reached, count"
scalar UAVNetwork_OnlyBasicNode.basicHosts[1].wlan[0].mac packetDropRetryLimitReached:sum(packetBytes) 336
attr interpolationmode none
attr source packetDropReasonIsRetryLimitReached(packetDropped)
attr title "packet drop: retry limit reached, sum(packetBytes)"
scalar UAVNetwork_OnlyBasicNode.basicHosts[1].wlan[0].mac linkBroken:count 5
attr interpolationmode none
attr source linkBroken
attr title "link break, count"
statistic UAVNetwork_OnlyBasicNode.basicHosts[1].wlan[0].radio minSnir:histogram
field count 12846
field mean 32.163041393816
field stddev 101.9710075566
field min 0.0071394081933721
field max 2436.5859758687
field sum 413166.42974496
field sqrsum 146852108.56061
attr source minimumSnir(packetSentToUpper)
attr title "Min SNIR, histogram"
bin	-inf	0
bin	0	11029
bin	40	987
bin	80	290
bin	120	97
bin	160	80
bin	200	48
bin	240	52
bin	280	31
bin	320	31
bin	360	29
bin	400	13
bin	440	27
bin	480	12
bin	520	13
bin	560	21
bin	600	9
bin	640	10
bin	680	10
bin	720	4
bin	760	6
bin	800	8
bin	840	4
bin	880	4
bin	920	4
bin	960	4
bin	1000	2
bin	1040	0
bin	1080	1
bin	1120	1
bin	1160	0
bin	1200	1
bin	1240	0
bin	1280	4
bin	1320	0
bin	1360	0
bin	1400	0
bin	1440	2
bin	1480	0
bin	1520	1
bin	1560	2
bin	1600	1
bin	1640	0
bin	1680	1
bin	1720	2
bin	1760	1
bin	1800	0
bin	1840	0
bin	1880	0
bin	1920	2
bin	1960	0
bin	2000	0
bin	2040	0
bin	2080	0
bin	2120	0
bin	2160	0
bin	2200	0
bin	2240	0
bin	2280	0
bin	2320	0
bin	2360	1
bin	2400	1
bin	2440	0
statistic UAVNetwork_OnlyBasicNode.basicHosts[1].wlan[0].radio packetErrorRate:histogram
field count 12846
field mean 0.03216883461417
field stddev 0.16676187860135
field min 0
field max 1
field sum 413.24084945362
field sqrsum 370.5068143084
attr source packetErrorRate(packetSentToUpper)
attr title "Packet error rate, histogram"
bin	-inf	0
bin	0	12265
bin	0.02	32
bin	0.04	16
bin	0.06	13
bin	0.08	8
bin	0.1	6
bin	0.12	9
bin	0.14	4
bin	0.16	8
bin	0.18	2
bin	0.2	11
bin	0.22	5
bin	0.24	6
bin	0.26	4
bin	0.28	7
bin	0.3	6
bin	0.32	8
bin	0.34	2
bin	0.36	3
bin	0.38	5
bin	0.4	2
bin	0.42	3
bin	0.44	3
bin	0.46	3
bin	0.48	1
bin	0.5	6
bin	0.52	6
bin	0.54	5
bin	0.56	4
bin	0.58	6
bin	0.6	2
bin	0.62	8
bin	0.64	3
bin	0.66	2
bin	0.68	5
bin	0.7	2
bin	0.72	6
bin	0.74	4
bin	0.76	8
bin	0.78	5
bin	0.8	3
bin	0.82	3
bin	0.84	6
bin	0.86	3
bin	0.88	10
bin	0.9	3
bin	0.92	7
bin	0.94	13
bin	0.96	15
bin	0.98	178
bin	1	101
bin	1.02	0
bin	1.04	0
bin	1.06	0
bin	1.08	0
bin	1.1	0
bin	1.12	0
bin	1.14	0
bin	1.16	0
bin	1.18	0
bin	1.2	0
bin	1.22	0
bin	1.24	0
bin	1.26	0
statistic UAVNetwork_OnlyBasicNode.basicHosts[1].wlan[0].radio bitErrorRate:histogram
field count 12846
field mean 0.0016413260668404
field stddev 0.015472657556069
field min 0
field max 0.35276239189345
field sum 21.084474654632
field sqrsum 3.1097397264357
attr source bitErrorRate(packetSentToUpper)
attr title "Bit error rate, histogram"
bin	-inf	0
bin	0	12517
bin	0.004	48
bin	0.008	27
bin	0.012	27
bin	0.016	24
bin	0.02	20
bin	0.024	12
bin	0.028	11
bin	0.032	10
bin	0.036	6
bin	0.04	9
bin	0.044	7
bin	0.048	5
bin	0.052	7
bin	0.056	6
bin	0.06	6
bin	0.064	5
bin	0.068	2
bin	0.072	5
bin	0.076	3
bin	0.08	6
bin	0.084	3
bin	0.088	4
bin	0.092	3
bin	0.096	2
bin	0.1	1
bin	0.104	4
bin	0.108	2
bin	0.112	2
bin	0.116	3
bin	0.12	3
bin	0.124	2
bin	0.128	1
bin	0.132	3
bin	0.136	0
bin	0.14	4
bin	0.144	1
bin	0.148	1
bin	0.152	2
bin	0.156	3
bin	0.16	2
bin	0.164	1
bin	0.168	1
bin	0.172	1
bin	0.176	2
bin	0.18	2
bin	0.184	3
bin	0.188	1
bin	0.192	0
bin	0.196	1
bin	0.2	0
bin	0.204	1
bin	0.208	1
bin	0.212	0
bin	0.216	2
bin	0.22	0
bin	0.224	2
bin	0.228	4
bin	0.232	2
bin	0.236	1
bin	0.24	0
bin	0.244	0
bin	0.248	0
bin	0.252	0
bin	0.256	0
bin	0.26	1
bin	0.264	1
bin	0.268	0
bin	0.272	1
bin	0.276	1
bin	0.28	0
bin	0.284	1
bin	0.288	1
bin	0.292	2
bin	0.296	0
bin	0.3	1
bin	0.304	0
bin	0.308	0
bin	0.312	0
bin	0.316	0
bin	0.32	0
bin	0.324	0
bin	0.328	1
bin	0.332	0
bin	0.336	0
bin	0.34	1
bin	0.344	0
bin	0.348	0
bin	0.352	1
bin	0.356	0
statistic UAVNetwork_OnlyBasicNode.basicHosts[1].wlan[0].radio symbolErrorRate:histogram
field count 12846
field mean 0.0016413260668404
field stddev 0.015472657556069
field min 0
field max 0.35276239189345
field sum 21.084474654632
field sqrsum 3.1097397264357
attr source symbolErrorRate(packetSentToUpper)
attr title "Symbol error rate, histogram"
bin	-inf	0
bin	0	12517
bin	0.004	48
bin	0.008	27
bin	0.012	27
bin	0.016	24
bin	0.02	20
bin	0.024	12
bin	0.028	11
bin	0.032	10
bin	0.036	6
bin	0.04	9
bin	0.044	7
bin	0.048	5
bin	0.052	7
bin	0.056	6
bin	0.06	6
bin	0.064	5
bin	0.068	2
bin	0.072	5
bin	0.076	3
bin	0.08	6
bin	0.084	3
bin	0.088	4
bin	0.092	3
bin	0.096	2
bin	0.1	1
bin	0.104	4
bin	0.108	2
bin	0.112	2
bin	0.116	3
bin	0.12	3
bin	0.124	2
bin	0.128	1
bin	0.132	3
bin	0.136	0
bin	0.14	4
bin	0.144	1
bin	0.148	1
bin	0.152	2
bin	0.156	3
bin	0.16	2
bin	0.164	1
bin	0.168	1
bin	0.172	1
bin	0.176	2
bin	0.18	2
bin	0.184	3
bin	0.188	1
bin	0.192	0
bin	0.196	1
bin	0.2	0
bin	0.204	1
bin	0.208	1
bin	0.212	0
bin	0.216	2
bin	0.22	0
bin	0.224	2
bin	0.228	4
bin	0.232	2
bin	0.236	1
bin	0.24	0
bin	0.244	0
bin	0.248	0
bin	0.252	0
bin	0.256	0
bin	0.26	1
bin	0.264	1
bin	0.268	0
bin	0.272	1
bin	0.276	1
bin	0.28	0
bin	0.284	1
bin	0.288	1
bin	0.292	2
bin	0.296	0
bin	0.3	1
bin	0.304	0
bin	0.308	0
bin	0.312	0
bin	0.316	0
bin	0.32	0
bin	0.324	0
bin	0.328	1
bin	0.332	0
bin	0.336	0
bin	0.34	1
bin	0.344	0
bin	0.348	0
bin	0.352	1
bin	0.356	0
scalar UAVNetwork_OnlyBasicNode.basicHosts[1].wlan[0].radio transmissionState:count 2628
attr interpolationmode sample-hold
attr source transmissionStateChanged
attr title "Radio transmission state, count"
scalar UAVNetwork_OnlyBasicNode.basicHosts[1].wlan[0].radio receptionState:count 31297
attr interpolationmode sample-hold
attr source receptionStateChanged
attr title "Radio reception state, count"
scalar UAVNetwork_OnlyBasicNode.basicHosts[1].wlan[0].radio radioMode:count 1317
attr interpolationmode sample-hold
attr source radioModeChanged
attr title "Radio mode, count"
scalar UAVNetwork_OnlyBasicNode.basicHosts[1].ipv4.ip packetDropAddressResolutionFailed:count 0
attr interpolationmode none
attr source packetDropReasonIsAddressResolutionFailed(packetDropped)
attr title "packet drop: address resolution failed, count"
scalar UAVNetwork_OnlyBasicNode.basicHosts[1].ipv4.ip packetDropAddressResolutionFailed:sum(packetBytes) 0
attr interpolationmode none
attr source packetDropReasonIsAddressResolutionFailed(packetDropped)
attr title "packet drop: address resolution failed, sum(packetBytes)"
scalar UAVNetwork_OnlyBasicNode.basicHosts[1].ipv4.ip packetDropHopLimitReached:count 0
attr interpolationmode none
attr source packetDropReasonIsHopLimitReached(packetDropped)
attr title "packet drop: hop limit reached, count"
scalar UAVNetwork_OnlyBasicNode.basicHosts[1].ipv4.ip packetDropHopLimitReached:sum(packetBytes) 0
attr interpolationmode none
attr source packetDropReasonIsHopLimitReached(packetDropped)
attr title "packet drop: hop limit reached, sum(packetBytes)"
scalar UAVNetwork_OnlyBasicNode.basicHosts[1].ipv4.ip packetDropForwardingDisabled:count 0
attr interpolationmode none
attr source packetDropReasonIsForwardingDisabled(packetDropped)
attr title "packet drop: forwarding disabled, count"
scalar UAVNetwork_OnlyBasicNode.basicHosts[1].ipv4.ip packetDropForwardingDisabled:sum(packetBytes) 0
attr interpolationmode none
attr source packetDropReasonIsForwardingDisabled(packetDropped)
attr title "packet drop: forwarding disabled, sum(packetBytes)"
scalar UAVNetwork_OnlyBasicNode.basicHosts[1].ipv4.ip packetDropNoInterfaceFound:count 0
attr interpolationmode none
attr source packetDropReasonIsNoInterfaceFound(packetDropped)
attr title "packet drop: no interface found, count"
scalar UAVNetwork_OnlyBasicNode.basicHosts[1].ipv4.ip packetDropNoInterfaceFound:sum(packetBytes) 0
attr interpolationmode none
attr source packetDropReasonIsNoInterfaceFound(packetDropped)
attr title "packet drop: no interface found, sum(packetBytes)"
scalar UAVNetwork_OnlyBasicNode.basicHosts[1].ipv4.ip packetDropNoRouteFound:count 0
attr interpolationmode none
attr source packetDropReasonIsNoRouteFound(packetDropped)
attr title "packet drop: no route found, count"
scalar UAVNetwork_OnlyBasicNode.basicHosts[1].ipv4.ip packetDropNoRouteFound:sum(packetBytes) 0
attr interpolationmode none
attr source packetDropReasonIsNoRouteFound(packetDropped)
attr title "packet drop: no route found, sum(packetBytes)"
scalar UAVNetwork_OnlyBasicNode.basicHosts[1].ipv4.ip packetDropUndefined:count 0
attr interpolationmode none
attr source packetDropReasonIsUndefined(packetDropped)
attr title "packet drop: undefined, count"
scalar UAVNetwork_OnlyBasicNode.basicHosts[1].ipv4.ip packetDropUndefined:sum(packetBytes) 0
attr interpolationmode none
attr source packetDropReasonIsUndefined(packetDropped)
attr title "packet drop: undefined, sum(packetBytes)"
scalar UAVNetwork_OnlyBasicNode.basicHosts[1].udp packetReceived:count 0
attr interpolationmode none
attr source packetReceived
attr title "packets received, count"
scalar UAVNetwork_OnlyBasicNode.basicHosts[1].udp packetReceived:sum(packetBytes) 0
attr interpolationmode none
attr source packetReceived
attr title "packets received, sum(packetBytes)"
scalar UAVNetwork_OnlyBasicNode.basicHosts[1].udp packetSent:count 0
attr interpolationmode none
attr source packetSent
attr title "packets sent, count"
scalar UAVNetwork_OnlyBasicNode.basicHosts[1].udp packetSent:sum(packetBytes) 0
attr interpolationmode none
attr source packetSent
attr title "packets sent, sum(packetBytes)"
scalar UAVNetwork_OnlyBasicNode.basicHosts[1].udp passedUpPk:count 0
attr interpolationmode none
attr source packetSentToUpper
attr title "packets passed up, count"
scalar UAVNetwork_OnlyBasicNode.basicHosts[1].udp droppedPkWrongPort:count 0
attr interpolationmode none
attr source packetDropReasonIsNoPortFound(packetDropped)
attr title "packets dropped (wrong port), count"
scalar UAVNetwork_OnlyBasicNode.basicHosts[1].udp droppedPkBadChecksum:count 0
attr interpolationmode none
attr source packetDropReasonIsIncorrectlyReceived(packetDropped)
attr title "packets dropped (checksum error), count"
scalar UAVNetwork_OnlyBasicNode.basicHosts[1].app[0] "Pings sent" 50
scalar UAVNetwork_OnlyBasicNode.basicHosts[1].app[0] "ping loss rate (%)" 4
scalar UAVNetwork_OnlyBasicNode.basicHosts[1].app[0] "ping out-of-order rate (%)" 6
scalar UAVNetwork_OnlyBasicNode.basicHosts[1].app[0] pingRxSeq:count 50
attr interpolationmode none
attr title "ping rx seq, count"
scalar UAVNetwork_OnlyBasicNode.basicHosts[1].app[0] pingTxSeq:count 50
attr interpolationmode none
attr title "ping tx seq, count"
scalar UAVNetwork_OnlyBasicNode.basicHosts[1].app[0] numOutOfOrderArrivals:last 3
attr interpolationmode none
attr title "ping out-of-order arrivals, last"
scalar UAVNetwork_OnlyBasicNode.basicHosts[1].app[0] numLost:last 2
attr interpolationmode none
attr title "pings lost, last"
statistic UAVNetwork_OnlyBasicNode.basicHosts[1].app[0] rtt:histogram
field count 47
field mean 0.043770018290404
field stddev 0.21319578736944
field min 0.002125571288
field max 1.466572118063
field sum 2.057190859649
field sqrsum 2.1808556941491
attr interpolationmode none
attr title "ping round-trip time, histogram"
attr unit s
bin	-inf	0
bin	0	37
bin	0.02	6
bin	0.04	1
bin	0.06	1
bin	0.08	0
bin	0.1	0
bin	0.12	1
bin	0.14	0
bin	0.16	0
bin	0.18	0
bin	0.2	0
bin	0.22	0
bin	0.24	0
bin	0.26	0
bin	0.28	0
bin	0.3	0
bin	0.32	0
bin	0.34	0
bin	0.36	0
bin	0.38	0
bin	0.4	0
bin	0.42	0
bin	0.44	0
bin	0.46	0
bin	0.48	0
bin	0.5	0
bin	0.52	0
bin	0.54	0
bin	0.56	0
bin	0.58	0
bin	0.6	0
bin	0.62	0
bin	0.64	0
bin	0.66	0
bin	0.68	0
bin	0.7	0
bin	0.72	0
bin	0.74	0
bin	0.76	0
bin	0.78	0
bin	0.8	0
bin	0.82	0
bin	0.84	0
bin	0.86	0
bin	0.88	0
bin	0.9	0
bin	0.92	0
bin	0.94	0
bin	0.96	0
bin	0.98	0
bin	1	0
bin	1.02	0
bin	1.04	0
bin	1.06	0
bin	1.08	0
bin	1.1	0
bin	1.12	0
bin	1.14	0
bin	1.16	0
bin	1.18	0
bin	1.2	0
bin	1.22	0
bin	1.24	0
bin	1.26	0
bin	1.28	0
bin	1.3	0
bin	1.32	0
bin	1.34	0
bin	1.36	0
bin	1.38	0
bin	1.4	0
bin	1.42	0
bin	1.44	0
bin	1.46	1
bin	1.48	0
bin	1.5	0
bin	1.52	0
bin	1.54	0
bin	1.56	0
bin	1.58	0
bin	1.6	0
bin	1.62	0
bin	1.64	0
bin	1.66	0
bin	1.68	0
bin	1.7	0
bin	1.72	0
bin	1.74	0
bin	1.76	0
bin	1.78	0
bin	1.8	0
bin	1.82	0
bin	1.84	0
scalar UAVNetwork_OnlyBasicNode.basicHosts[2].lo[0].lo rcvdPkFromHl:count 2
attr interpolationmode none
attr source packetReceivedFromUpper
attr title "packets received from higher layer, count"
scalar UAVNetwork_OnlyBasicNode.basicHosts[2].lo[0].lo rcvdPkFromHl:sum(packetBytes) 168
attr interpolationmode none
attr source packetReceivedFromUpper
attr title "packets received from higher layer, sum(packetBytes)"
scalar UAVNetwork_OnlyBasicNode.basicHosts[2].lo[0].lo passedUpPk:count 2
attr interpolationmode none
attr source packetSentToUpper
attr title "packets passed to higher layer, count"
scalar UAVNetwork_OnlyBasicNode.basicHosts[2].lo[0].lo passedUpPk:sum(packetBytes) 168
attr interpolationmode none
attr source packetSentToUpper
attr title "packets passed to higher layer, sum(packetBytes)"
scalar UAVNetwork_OnlyBasicNode.basicHosts[2].wlan[0].mac numRetry 107
scalar UAVNetwork_OnlyBasicNode.basicHosts[2].wlan[0].mac numSentWithoutRetry 120
scalar UAVNetwork_OnlyBasicNode.basicHosts[2].wlan[0].mac numGivenUp 6
scalar UAVNetwork_OnlyBasicNode.basicHosts[2].wlan[0].mac numCollision 1604
scalar UAVNetwork_OnlyBasicNode.basicHosts[2].wlan[0].mac numSent 152
scalar UAVNetwork_OnlyBasicNode.basicHosts[2].wlan[0].mac numReceived 198
scalar UAVNetwork_OnlyBasicNode.basicHosts[2].wlan[0].mac numSentBroadcast 188
scalar UAVNetwork_OnlyBasicNode.basicHosts[2].wlan[0].mac numReceivedBroadcast 2163
scalar UAVNetwork_OnlyBasicNode.basicHosts[2].wlan[0].mac packetDropIncorrectlyReceived:count 1604
attr interpolationmode none
attr source packetDropReasonIsIncorrectlyReceived(packetDropped)
attr title "packet drop: incorrectly received, count"
scalar UAVNetwork_OnlyBasicNode.basicHosts[2].wlan[0].mac packetDropIncorrectlyReceived:sum(packetBytes) 108639
attr interpolationmode none
attr source packetDropReasonIsIncorrectlyReceived(packetDropped)
attr title "packet drop: incorrectly received, sum(packetBytes)"
scalar UAVNetwork_OnlyBasicNode.basicHosts[2].wlan[0].mac packetDropNotAddressedToUs:count 5892
attr interpolationmode none
attr source packetDropReasonIsNotAddressedToUs(packetDropped)
attr title "packet drop: not addressed to us, count"
scalar UAVNetwork_OnlyBasicNode.basicHosts[2].wlan[0].mac packetDropNotAddressedToUs:sum(packetBytes) 531560
attr interpolationmode none
attr source packetDropReasonIsNotAddressedToUs(packetDropped)
attr title "packet drop: not addressed to us, sum(packetBytes)"
scalar UAVNetwork_OnlyBasicNode.basicHosts[2].wlan[0].mac packetDropQueueOverflow:count 0
attr interpolationmode none
attr source packetDropReasonIsQueueOverflow(packetDropped)
attr title "packet drop: queue overflow, count"
scalar UAVNetwork_OnlyBasicNode.basicHosts[2].wlan[0].mac packetDropQueueOverflow:sum(packetBytes) 0
attr interpolationmode none
attr source packetDropReasonIsQueueOverflow(packetDropped)
attr title "packet drop: queue overflow, sum(packetBytes)"
scalar UAVNetwork_OnlyBasicNode.basicHosts[2].wlan[0].mac packetDropRetryLimitReached:count 6
attr interpolationmode none
attr source packetDropReasonIsRetryLimitReached(packetDropped)
attr title "packet drop: retry limit reached, count"
scalar UAVNetwork_OnlyBasicNode.basicHosts[2].wlan[0].mac packetDropRetryLimitReached:sum(packetBytes) 476
attr interpolationmode none
attr source packetDropReasonIsRetryLimitReached(packetDropped)
attr title "packet drop: retry limit reached, sum(packetBytes)"
scalar UAVNetwork_OnlyBasicNode.basicHosts[2].wlan[0].mac linkBroken:count 6
attr interpolationmode none
attr source linkBroken
attr title "link break, count"
statistic UAVNetwork_OnlyBasicNode.basicHosts[2].wlan[0].radio minSnir:histogram
field count 13940
field mean 22.508296394118
field stddev 54.70298657073
field min 0.013736231307153
field max 1689.3667167667
field sum 313765.651734
field sqrsum 48773627.223001
attr source minimumSnir(packetSentToUpper)
attr title "Min SNIR, histogram"
bin	-inf	0
bin	0	10364
bin	20	1896
bin	40	707
bin	60	331
bin	80	182
bin	100	101
bin	120	49
bin	140	32
bin	160	29
bin	180	28
bin	200	27
bin	220	25
bin	240	25
bin	260	20
bin	280	21
bin	300	18
bin	320	17
bin	340	10
bin	360	16
bin	380	4
bin	400	4
bin	420	6
bin	440	0
bin	460	8
bin	480	4
bin	500	1
bin	520	0
bin	540	2
bin	560	1
bin	580	0
bin	600	0
bin	620	1
bin	640	1
bin	660	0
bin	680	0
bin	700	1
bin	720	0
bin	740	0
bin	760	0
bin	780	0
bin	800	0
bin	820	0
bin	840	0
bin	860	0
bin	880	0
bin	900	0
bin	920	0
bin	940	0
bin	960	0
bin	980	0
bin	1000	2
bin	1020	0
bin	1040	1
bin	1060	0
bin	1080	0
bin	1100	0
bin	1120	0
bin	1140	0
bin	1160	1
bin	1180	0
bin	1200	1
bin	1220	1
bin	1240	0
bin	1260	0
bin	1280	0
bin	1300	0
bin	1320	0
bin	1340	0
bin	1360	0
bin	1380	0
bin	1400	0
bin	1420	1
bin	1440	0
bin	1460	0
bin	1480	0
bin	1500	0
bin	1520	0
bin	1540	0
bin	1560	0
bin	1580	0
bin	1600	0
bin	1620	0
bin	1640	0
bin	1660	1
bin	1680	1
bin	1700	0
statistic UAVNetwork_OnlyBasicNode.basicHosts[2].wlan[0].radio packetErrorRate:histogram
field count 13940
field mean 0.034203031625528
field stddev 0.1704553514366
field min 0
field max 1
field sum 476.79026085986
field sqrsum 421.30569140133
attr source packetErrorRate(packetSentToUpper)
attr title "Packet error rate, histogram"
bin	-inf	0
bin	0	13207
bin	0.02	51
bin	0.04	29
bin	0.06	23
bin	0.08	19
bin	0.1	14
bin	0.12	14
bin	0.14	12
bin	0.16	9
bin	0.18	7
bin	0.2	14
bin	0.22	13
bin	0.24	3
bin	0.26	5
bin	0.28	2
bin	0.3	10
bin	0.32	6
bin	0.34	5
bin	0.36	12
bin	0.38	4
bin	0.4	6
bin	0.42	5
bin	0.44	1
bin	0.46	9
bin	0.48	2
bin	0.5	3
bin	0.52	4
bin	0.54	5
bin	0.56	4
bin	0.58	3
bin	0.6	3
bin	0.62	2
bin	0.64	4
bin	0.66	4
bin	0.68	5
bin	0.7	4
bin	0.72	4
bin	0.74	7
bin	0.76	5
bin	0.78	4
bin	0.8	6
bin	0.82	2
bin	0.84	10
bin	0.86	8
bin	0.88	9
bin	0.9	13
bin	0.92	8
bin	0.94	12
bin	0.96	17
bin	0.98	238
bin	1	74
bin	1.02	0
bin	1.04	0
bin	1.06	0
bin	1.08	0
bin	1.1	0
bin	1.12	0
bin	1.14	0
bin	1.16	0
bin	1.18	0
bin	1.2	0
bin	1.22	0
bin	1.24	0
bin	1.26	0
statistic UAVNetwork_OnlyBasicNode.basicHosts[2].wlan[0].radio bitErrorRate:histogram
field count 13940
field mean 0.0011916251295071
field stddev 0.010471929772409
field min 0
field max 0.30008995871975
field sum 16.611254305329
field sqrsum 1.5483634321759
attr source bitErrorRate(packetSentToUpper)
attr title "Bit error rate, histogram"
bin	-inf	0
bin	0	13594
bin	0.006	70
bin	0.012	47
bin	0.018	30
bin	0.024	31
bin	0.03	20
bin	0.036	18
bin	0.042	16
bin	0.048	16
bin	0.054	11
bin	0.06	8
bin	0.066	7
bin	0.072	7
bin	0.078	5
bin	0.084	11
bin	0.09	6
bin	0.096	3
bin	0.102	4
bin	0.108	4
bin	0.114	3
bin	0.12	4
bin	0.126	3
bin	0.132	2
bin	0.138	1
bin	0.144	1
bin	0.15	2
bin	0.156	1
bin	0.162	3
bin	0.168	1
bin	0.174	0
bin	0.18	2
bin	0.186	2
bin	0.192	1
bin	0.198	0
bin	0.204	0
bin	0.21	2
bin	0.216	0
bin	0.222	1
bin	0.228	0
bin	0.234	0
bin	0.24	1
bin	0.246	0
bin	0.252	1
bin	0.258	0
bin	0.264	0
bin	0.27	0
bin	0.276	0
bin	0.282	0
bin	0.288	0
bin	0.294	0
bin	0.3	1
bin	0.306	0
statistic UAVNetwork_OnlyBasicNode.basicHosts[2].wlan[0].radio symbolErrorRate:histogram
field count 13940
field mean 0.0011916251295071
field stddev 0.010471929772409
field min 0
field max 0.30008995871975
field sum 16.611254305329
field sqrsum 1.5483634321759
attr source symbolErrorRate(packetSentToUpper)
attr title "Symbol error rate, histogram"
bin	-inf	0
bin	0	13594
bin	0.006	70
bin	0.012	47
bin	0.018	30
bin	0.024	31
bin	0.03	20
bin	0.036	18
bin	0.042	16
bin	0.048	16
bin	0.054	11
bin	0.06	8
bin	0.066	7
bin	0.072	7
bin	0.078	5
bin	0.084	11
bin	0.09	6
bin	0.096	3
bin	0.102	4
bin	0.108	4
bin	0.114	3
bin	0.12	4
bin	0.126	3
bin	0.132	2
bin	0.138	1
bin	0.144	1
bin	0.15	2
bin	0.156	1
bin	0.162	3
bin	0.168	1
bin	0.174	0
bin	0.18	2
bin	0.186	2
bin	0.192	1
bin	0.198	0
bin	0.204	0
bin	0.21	2
bin	0.216	0
bin	0.222	1
bin	0.228	0
bin	0.234	0
bin	0.24	1
bin	0.246	0
bin	0.252	1
bin	0.258	0
bin	0.264	0
bin	0.27	0
bin	0.276	0
bin	0.282	0
bin	0.288	0
bin	0.294	0
bin	0.3	1
bin	0.306	0
scalar UAVNetwork_OnlyBasicNode.basicHosts[2].wlan[0].radio transmissionState:count 2604
attr interpolationmode sample-hold
attr source transmissionStateChanged
attr title "Radio transmission state, count"
scalar UAVNetwork_OnlyBasicNode.basicHosts[2].wlan[0].radio receptionState:count 34187
attr interpolationmode sample-hold
attr source receptionStateChanged
attr title "Radio reception state, count"
scalar UAVNetwork_OnlyBasicNode.basicHosts[2].wlan[0].radio radioMode:count 1305
attr interpolationmode sample-hold
attr source radioModeChanged
attr title "Radio mode, count"
scalar UAVNetwork_OnlyBasicNode.basicHosts[2].ipv4.ip packetDropAddressResolutionFailed:count 0
attr interpolationmode none
attr source packetDropReasonIsAddressResolutionFailed(packetDropped)
attr title "packet drop: address resolution failed, count"
scalar UAVNetwork_OnlyBasicNode.basicHosts[2].ipv4.ip packetDropAddressResolutionFailed:sum(packetBytes) 0
attr interpolationmode none
attr source packetDropReasonIsAddressResolutionFailed(packetDropped)
attr title "packet drop: address resolution failed, sum(packetBytes)"
scalar UAVNetwork_OnlyBasicNode.basicHosts[2].ipv4.ip packetDropHopLimitReached:count 0
attr interpolationmode none
attr source packetDropReasonIsHopLimitReached(packetDropped)
attr title "packet drop: hop limit reached, count"
scalar UAVNetwork_OnlyBasicNode.basicHosts[2].ipv4.ip packetDropHopLimitReached:sum(packetBytes) 0
attr interpolationmode none
attr source packetDropReasonIsHopLimitReached(packetDropped)
attr title "packet drop: hop limit reached, sum(packetBytes)"
scalar UAVNetwork_OnlyBasicNode.basicHosts[2].ipv4.ip packetDropForwardingDisabled:count 0
attr interpolationmode none
attr source packetDropReasonIsForwardingDisabled(packetDropped)
attr title "packet drop: forwarding disabled, count"
scalar UAVNetwork_OnlyBasicNode.basicHosts[2].ipv4.ip packetDropForwardingDisabled:sum(packetBytes) 0
attr interpolationmode none
attr source packetDropReasonIsForwardingDisabled(packetDropped)
attr title "packet drop: forwarding disabled, sum(packetBytes)"
scalar UAVNetwork_OnlyBasicNode.basicHosts[2].ipv4.ip packetDropNoInterfaceFound:count 0
attr interpolationmode none
attr source packetDropReasonIsNoInterfaceFound(packetDropped)
attr title "packet drop: no interface found, count"
scalar UAVNetwork_OnlyBasicNode.basicHosts[2].ipv4.ip packetDropNoInterfaceFound:sum(packetBytes) 0
attr interpolationmode none
attr source packetDropReasonIsNoInterfaceFound(packetDropped)
attr title "packet drop: no interface found, sum(packetBytes)"
scalar UAVNetwork_OnlyBasicNode.basicHosts[2].ipv4.ip packetDropNoRouteFound:count 0
attr interpolationmode none
attr source packetDropReasonIsNoRouteFound(packetDropped)
attr title "packet drop: no route found, count"
scalar UAVNetwork_OnlyBasicNode.basicHosts[2].ipv4.ip packetDropNoRouteFound:sum(packetBytes) 0
attr interpolationmode none
attr source packetDropReasonIsNoRouteFound(packetDropped)
attr title "packet drop: no route found, sum(packetBytes)"
scalar UAVNetwork_OnlyBasicNode.basicHosts[2].ipv4.ip packetDropUndefined:count 0
attr interpolationmode none
attr source packetDropReasonIsUndefined(packetDropped)
attr title "packet drop: undefined, count"
scalar UAVNetwork_OnlyBasicNode.basicHosts[2].ipv4.ip packetDropUndefined:sum(packetBytes) 0
attr interpolationmode none
attr source packetDropReasonIsUndefined(packetDropped)
attr title "packet drop: undefined, sum(packetBytes)"
scalar UAVNetwork_OnlyBasicNode.basicHosts[2].udp packetReceived:count 0
attr interpolationmode none
attr source packetReceived
attr title "packets received, count"
scalar UAVNetwork_OnlyBasicNode.basicHosts[2].udp packetReceived:sum(packetBytes) 0
attr interpolationmode none
attr source packetReceived
attr title "packets received, sum(packetBytes)"
scalar UAVNetwork_OnlyBasicNode.basicHosts[2].udp packetSent:count 0
attr interpolationmode none
attr source packetSent
attr title "packets sent, count"
scalar UAVNetwork_OnlyBasicNode.basicHosts[2].udp packetSent:sum(packetBytes) 0
attr interpolationmode none
attr source packetSent
attr title "packets sent, sum(packetBytes)"
scalar UAVNetwork_OnlyBasicNode.basicHosts[2].udp passedUpPk:count 0
attr interpolationmode none
attr source packetSentToUpper
attr title "packets passed up, count"
scalar UAVNetwork_OnlyBasicNode.basicHosts[2].udp droppedPkWrongPort:count 0
attr interpolationmode none
attr source packetDropReasonIsNoPortFound(packetDropped)
attr title "packets dropped (wrong port), count"
scalar UAVNetwork_OnlyBasicNode.basicHosts[2].udp droppedPkBadChecksum:count 0
attr interpolationmode none
attr source packetDropReasonIsIncorrectlyReceived(packetDropped)
attr title "packets dropped (checksum error), count"
scalar UAVNetwork_OnlyBasicNode.basicHosts[2].app[0] "Pings sent" 49
scalar UAVNetwork_OnlyBasicNode.basicHosts[2].app[0] "ping loss rate (%)" 2.0408163265306
scalar UAVNetwork_OnlyBasicNode.basicHosts[2].app[0] "ping out-of-order rate (%)" 10.204081632653
scalar UAVNetwork_OnlyBasicNode.basicHosts[2].app[0] pingRxSeq:count 53
attr interpolationmode none
attr title "ping rx seq, count"
scalar UAVNetwork_OnlyBasicNode.basicHosts[2].app[0] pingTxSeq:count 49
attr interpolationmode none
attr title "ping tx seq, count"
scalar UAVNetwork_OnlyBasicNode.basicHosts[2].app[0] numOutOfOrderArrivals:last 5
attr interpolationmode none
attr title "ping out-of-order arrivals, last"
scalar UAVNetwork_OnlyBasicNode.basicHosts[2].app[0] numLost:last 1
attr interpolationmode none
attr title "pings lost, last"
statistic UAVNetwork_OnlyBasicNode.basicHosts[2].app[0] rtt:histogram
field count 47
field mean 0.013587629456277
field stddev 0.019139247540814
field min 0.002306258362
field max 0.084489917664
field sum 0.638618584445
field sqrsum 0.025527609325045
attr interpolationmode none
attr title "ping round-trip time, histogram"
attr unit s
bin	-inf	0
bin	0	0
bin	0.002	19
bin	0.004	5
bin	0.006	4
bin	0.008	2
bin	0.01	4
bin	0.012	1
bin	0.014	0
bin	0.016	3
bin	0.018	0
bin	0.02	2
bin	0.022	1
bin	0.024	0
bin	0.026	1
bin	0.028	0
bin	0.03	0
bin	0.032	0
bin	0.034	1
bin	0.036	0
bin	0.038	0
bin	0.04	1
bin	0.042	0
bin	0.044	0
bin	0.046	0
bin	0.048	0
bin	0.05	0
bin	0.052	0
bin	0.054	0
bin	0.056	0
bin	0.058	0
bin	0.06	0
bin	0.062	0
bin	0.064	0
bin	0.066	1
bin	0.068	0
bin	0.07	0
bin	0.072	0
bin	0.074	0
bin	0.076	0
bin	0.078	0
bin	0.08	0
bin	0.082	1
bin	0.084	1
bin	0.086	0
bin	0.088	0
bin	0.09	0
bin	0.092	0
bin	0.094	0
bin	0.096	0
bin	0.098	0
bin	0.1	0
bin	0.102	0
bin	0.104	0
bin	0.106	0
scalar UAVNetwork_OnlyBasicNode.basicHosts[3].lo[0].lo rcvdPkFromHl:count 2
attr interpolationmode none
attr source packetReceivedFromUpper
attr title "packets received from higher layer, count"
scalar UAVNetwork_OnlyBasicNode.basicHosts[3].lo[0].lo rcvdPkFromHl:sum(packetBytes) 168
attr interpolationmode none
attr source packetReceivedFromUpper
attr title "packets received from higher layer, sum(packetBytes)"
scalar UAVNetwork_OnlyBasicNode.basicHosts[3].lo[0].lo passedUpPk:count 2
attr interpolationmode none
attr source packetSentToUpper
attr title "packets passed to higher layer, count"
scalar UAVNetwork_OnlyBasicNode.basicHosts[3].lo[0].lo passedUpPk:sum(packetBytes) 168
attr interpolationmode none
attr source packetSentToUpper
attr title "packets passed to higher layer, sum(packetBytes)"
scalar UAVNetwork_OnlyBasicNode.basicHosts[3].wlan[0].mac numRetry 219
scalar UAVNetwork_OnlyBasicNode.basicHosts[3].wlan[0].mac numSentWithoutRetry 102
scalar UAVNetwork_OnlyBasicNode.basicHosts[3].wlan[0].mac numGivenUp 16
scalar UAVNetwork_OnlyBasicNode.basicHosts[3].wlan[0].mac numCollision 1238
scalar UAVNetwork_OnlyBasicNode.basicHosts[3].wlan[0].mac numSent 151
scalar UAVNetwork_OnlyBasicNode.basicHosts[3].wlan[0].mac numReceived 124
scalar UAVNetwork_OnlyBasicNode.basicHosts[3].wlan[0].mac numSentBroadcast 144
scalar UAVNetwork_OnlyBasicNode.basicHosts[3].wlan[0].mac numReceivedBroadcast 2136
scalar UAVNetwork_OnlyBasicNode.basicHosts[3].wlan[0].mac packetDropIncorrectlyReceived:count 1238
attr interpolationmode none
attr source packetDropReasonIsIncorrectlyReceived(packetDropped)
attr title "packet drop: incorrectly received, count"
scalar UAVNetwork_OnlyBasicNode.basicHosts[3].wlan[0].mac packetDropIncorrectlyReceived:sum(packetBytes) 86721
attr interpolationmode none
attr source packetDropReasonIsIncorrectlyReceived(packetDropped)
attr title "packet drop: incorrectly received, sum(packetBytes)"
scalar UAVNetwork_OnlyBasicNode.basicHosts[3].wlan[0].mac packetDropNotAddressedToUs:count 5840
attr interpolationmode none
attr source packetDropReasonIsNotAddressedToUs(packetDropped)
attr title "packet drop: not addressed to us, count"
scalar UAVNetwork_OnlyBasicNode.basicHosts[3].wlan[0].mac packetDropNotAddressedToUs:sum(packetBytes) 519448
attr interpolationmode none
attr source packetDropReasonIsNotAddressedToUs(packetDropped)
attr title "packet drop: not addressed to us, sum(packetBytes)"
scalar UAVNetwork_OnlyBasicNode.basicHosts[3].wlan[0].mac packetDropQueueOverflow:count 0
attr interpolationmode none
attr source packetDropReasonIsQueueOverflow(packetDropped)
attr title "packet drop: queue overflow, count"
scalar UAVNetwork_OnlyBasicNode.basicHosts[3].wlan[0].mac packetDropQueueOverflow:sum(packetBytes) 0
attr interpolationmode none
attr source packetDropReasonIsQueueOverflow(packetDropped)
attr title "packet drop: queue overflow, sum(packetBytes)"
scalar UAVNetwork_OnlyBasicNode.basicHosts[3].wlan[0].mac packetDropRetryLimitReached:count 16
attr interpolationmode none
attr source packetDropReasonIsRetryLimitReached(packetDropped)
attr title "packet drop: retry limit reached, count"
scalar UAVNetwork_OnlyBasicNode.basicHosts[3].wlan[0].mac packetDropRetryLimitReached:sum(packetBytes) 1264
attr interpolationmode none
attr source packetDropReasonIsRetryLimitReached(packetDropped)
attr title "packet drop: retry limit reached, sum(packetBytes)"
scalar UAVNetwork_OnlyBasicNode.basicHosts[3].wlan[0].mac linkBroken:count 16
attr interpolationmode none
attr source linkBroken
attr title "link break, count"
statistic UAVNetwork_OnlyBasicNode.basicHosts[3].wlan[0].radio minSnir:histogram
field count 13150
field mean 25.552449665283
field stddev 141.07400804008
field min 0.00047434029964312
field max 8147.5615751289
field sum 336014.71309847
field sqrsum 270275763.20758
attr source minimumSnir(packetSentToUpper)
attr title "Min SNIR, histogram"
bin	-inf	0
bin	0	12907
bin	135	159
bin	270	15
bin	405	8
bin	540	9
bin	675	6
bin	810	12
bin	945	5
bin	1080	7
bin	1215	4
bin	1350	1
bin	1485	2
bin	1620	0
bin	1755	1
bin	1890	3
bin	2025	2
bin	2160	3
bin	2295	0
bin	2430	1
bin	2565	0
bin	2700	1
bin	2835	1
bin	2970	0
bin	3105	0
bin	3240	0
bin	3375	0
bin	3510	0
bin	3645	0
bin	3780	0
bin	3915	0
bin	4050	0
bin	4185	0
bin	4320	0
bin	4455	0
bin	4590	0
bin	4725	0
bin	4860	0
bin	4995	0
bin	5130	0
bin	5265	0
bin	5400	0
bin	5535	0
bin	5670	0
bin	5805	0
bin	5940	0
bin	6075	1
bin	6210	0
bin	6345	0
bin	6480	0
bin	6615	1
bin	6750	0
bin	6885	0
bin	7020	0
bin	7155	0
bin	7290	0
bin	7425	0
bin	7560	0
bin	7695	0
bin	7830	0
bin	7965	0
bin	8100	1
bin	8235	0
statistic UAVNetwork_OnlyBasicNode.basicHosts[3].wlan[0].radio packetErrorRate:histogram
field count 13150
field mean 0.031340630007204
field stddev 0.1663211685218
field min 0
field max 1
field sum 412.12928459474
field sqrsum 376.65364263724
attr source packetErrorRate(packetSentToUpper)
attr title "Packet error rate, histogram"
bin	-inf	0
bin	0	12590
bin	0.02	30
bin	0.04	16
bin	0.06	10
bin	0.08	12
bin	0.1	11
bin	0.12	4
bin	0.14	3
bin	0.16	4
bin	0.18	7
bin	0.2	4
bin	0.22	3
bin	0.24	4
bin	0.26	5
bin	0.28	3
bin	0.3	7
bin	0.32	3
bin	0.34	2
bin	0.36	3
bin	0.38	5
bin	0.4	5
bin	0.42	3
bin	0.44	3
bin	0.46	4
bin	0.48	3
bin	0.5	0
bin	0.52	1
bin	0.54	3
bin	0.56	2
bin	0.58	3
bin	0.6	7
bin	0.62	3
bin	0.64	4
bin	0.66	7
bin	0.68	5
bin	0.7	3
bin	0.72	3
bin	0.74	3
bin	0.76	4
bin	0.78	2
bin	0.8	4
bin	0.82	4
bin	0.84	6
bin	0.86	4
bin	0.88	5
bin	0.9	3
bin	0.92	8
bin	0.94	4
bin	0.96	13
bin	0.98	195
bin	1	110
bin	1.02	0
bin	1.04	0
bin	1.06	0
bin	1.08	0
bin	1.1	0
bin	1.12	0
bin	1.14	0
bin	1.16	0
bin	1.18	0
bin	1.2	0
bin	1.22	0
bin	1.24	0
statistic UAVNetwork_OnlyBasicNode.basicHosts[3].wlan[0].radio bitErrorRate:histogram
field count 13150
field mean 0.0016169447008009
field stddev 0.014047089380907
field min 0
field max 0.46120427861935
field sum 21.262822815532
field sqrsum 2.6289509569442
attr source bitErrorRate(packetSentToUpper)
attr title "Bit error rate, histogram"
bin	-inf	0
bin	0	12852
bin	0.0096	55
bin	0.0192	35
bin	0.0288	36
bin	0.0384	24
bin	0.048	18
bin	0.0576	20
bin	0.0672	9
bin	0.0768	14
bin	0.0864	12
bin	0.096	10
bin	0.1056	11
bin	0.1152	5
bin	0.1248	5
bin	0.1344	5
bin	0.144	6
bin	0.1536	7
bin	0.1632	4
bin	0.1728	0
bin	0.1824	6
bin	0.192	0
bin	0.2016	3
bin	0.2112	1
bin	0.2208	5
bin	0.2304	2
bin	0.24	2
bin	0.2496	0
bin	0.2592	0
bin	0.2688	1
bin	0.2784	1
bin	0.288	0
bin	0.2976	0
bin	0.3072	0
bin	0.3168	0
bin	0.3264	0
bin	0.336	0
bin	0.3456	0
bin	0.3552	0
bin	0.3648	0
bin	0.3744	0
bin	0.384	0
bin	0.3936	0
bin	0.4032	0
bin	0.4128	0
bin	0.4224	0
bin	0.432	0
bin	0.4416	0
bin	0.4512	0
bin	0.4608	1
bin	0.4704	0
statistic UAVNetwork_OnlyBasicNode.basicHosts[3].wlan[0].radio symbolErrorRate:histogram
field count 13150
field mean 0.0016169447008009
field stddev 0.014047089380907
field min 0
field max 0.46120427861935
field sum 21.262822815532
field sqrsum 2.6289509569442
attr source symbolErrorRate(packetSentToUpper)
attr title "Symbol error rate, histogram"
bin	-inf	0
bin	0	12852
bin	0.0096	55
bin	0.0192	35
bin	0.0288	36
bin	0.0384	24
bin	0.048	18
bin	0.0576	20
bin	0.0672	9
bin	0.0768	14
bin	0.0864	12
bin	0.096	10
bin	0.1056	11
bin	0.1152	5
bin	0.1248	5
bin	0.1344	5
bin	0.144	6
bin	0.1536	7
bin	0.1632	4
bin	0.1728	0
bin	0.1824	6
bin	0.192	0
bin	0.2016	3
bin	0.2112	1
bin	0.2208	5
bin	0.2304	2
bin	0.24	2
bin	0.2496	0
bin	0.2592	0
bin	0.2688	1
bin	0.2784	1
bin	0.288	0
bin	0.2976	0
bin	0.3072	0
bin	0.3168	0
bin	0.3264	0
bin	0.336	0
bin	0.3456	0
bin	0.3552	0
bin	0.3648	0
bin	0.3744	0
bin	0.384	0
bin	0.3936	0
bin	0.4032	0
bin	0.4128	0
bin	0.4224	0
bin	0.432	0
bin	0.4416	0
bin	0.4512	0
bin	0.4608	1
bin	0.4704	0
scalar UAVNetwork_OnlyBasicNode.basicHosts[3].wlan[0].radio transmissionState:count 2616
attr interpolationmode sample-hold
attr source transmissionStateChanged
attr title "Radio transmission state, count"
scalar UAVNetwork_OnlyBasicNode.basicHosts[3].wlan[0].radio receptionState:count 32418
attr interpolationmode sample-hold
attr source receptionStateChanged
attr title "Radio reception state, count"
scalar UAVNetwork_OnlyBasicNode.basicHosts[3].wlan[0].radio radioMode:count 1311
attr interpolationmode sample-hold
attr source radioModeChanged
attr title "Radio mode, count"
scalar UAVNetwork_OnlyBasicNode.basicHosts[3].ipv4.ip packetDropAddressResolutionFailed:count 0
attr interpolationmode none
attr source packetDropReasonIsAddressResolutionFailed(packetDropped)
attr title "packet drop: address resolution failed, count"
scalar UAVNetwork_OnlyBasicNode.basicHosts[3].ipv4.ip packetDropAddressResolutionFailed:sum(packetBytes) 0
attr interpolationmode none
attr source packetDropReasonIsAddressResolutionFailed(packetDropped)
attr title "packet drop: address resolution failed, sum(packetBytes)"
scalar UAVNetwork_OnlyBasicNode.basicHosts[3].ipv4.ip packetDropHopLimitReached:count 0
attr interpolationmode none
attr source packetDropReasonIsHopLimitReached(packetDropped)
attr title "packet drop: hop limit reached, count"
scalar UAVNetwork_OnlyBasicNode.basicHosts[3].ipv4.ip packetDropHopLimitReached:sum(packetBytes) 0
attr interpolationmode none
attr source packetDropReasonIsHopLimitReached(packetDropped)
attr title "packet drop: hop limit reached, sum(packetBytes)"
scalar UAVNetwork_OnlyBasicNode.basicHosts[3].ipv4.ip packetDropForwardingDisabled:count 0
attr interpolationmode none
attr source packetDropReasonIsForwardingDisabled(packetDropped)
attr title "packet drop: forwarding disabled, count"
scalar UAVNetwork_OnlyBasicNode.basicHosts[3].ipv4.ip packetDropForwardingDisabled:sum(packetBytes) 0
attr interpolationmode none
attr source packetDropReasonIsForwardingDisabled(packetDropped)
attr title "packet drop: forwarding disabled, sum(packetBytes)"
scalar UAVNetwork_OnlyBasicNode.basicHosts[3].ipv4.ip packetDropNoInterfaceFound:count 0
attr interpolationmode none
attr source packetDropReasonIsNoInterfaceFound(packetDropped)
attr title "packet drop: no interface found, count"
scalar UAVNetwork_OnlyBasicNode.basicHosts[3].ipv4.ip packetDropNoInterfaceFound:sum(packetBytes) 0
attr interpolationmode none
attr source packetDropReasonIsNoInterfaceFound(packetDropped)
attr title "packet drop: no interface found, sum(packetBytes)"
scalar UAVNetwork_OnlyBasicNode.basicHosts[3].ipv4.ip packetDropNoRouteFound:count 0
attr interpolationmode none
attr source packetDropReasonIsNoRouteFound(packetDropped)
attr title "packet drop: no route found, count"
scalar UAVNetwork_OnlyBasicNode.basicHosts[3].ipv4.ip packetDropNoRouteFound:sum(packetBytes) 0
attr interpolationmode none
attr source packetDropReasonIsNoRouteFound(packetDropped)
attr title "packet drop: no route found, sum(packetBytes)"
scalar UAVNetwork_OnlyBasicNode.basicHosts[3].ipv4.ip packetDropUndefined:count 0
attr interpolationmode none
attr source packetDropReasonIsUndefined(packetDropped)
attr title "packet drop: undefined, count"
scalar UAVNetwork_OnlyBasicNode.basicHosts[3].ipv4.ip packetDropUndefined:sum(packetBytes) 0
attr interpolationmode none
attr source packetDropReasonIsUndefined(packetDropped)
attr title "packet drop: undefined, sum(packetBytes)"
scalar UAVNetwork_OnlyBasicNode.basicHosts[3].udp packetReceived:count 0
attr interpolationmode none
attr source packetReceived
attr title "packets received, count"
scalar UAVNetwork_OnlyBasicNode.basicHosts[3].udp packetReceived:sum(packetBytes) 0
attr interpolationmode none
attr source packetReceived
attr title "packets received, sum(packetBytes)"
scalar UAVNetwork_OnlyBasicNode.basicHosts[3].udp packetSent:count 0
attr interpolationmode none
attr source packetSent
attr title "packets sent, count"
scalar UAVNetwork_OnlyBasicNode.basicHosts[3].udp packetSent:sum(packetBytes) 0
attr interpolationmode none
attr source packetSent
attr title "packets sent, sum(packetBytes)"
scalar UAVNetwork_OnlyBasicNode.basicHosts[3].udp passedUpPk:count 0
attr interpolationmode none
attr source packetSentToUpper
attr title "packets passed up, count"
scalar UAVNetwork_OnlyBasicNode.basicHosts[3].udp droppedPkWrongPort:count 0
attr interpolationmode none
attr source packetDropReasonIsNoPortFound(packetDropped)
attr title "packets dropped (wrong port), count"
scalar UAVNetwork_OnlyBasicNode.basicHosts[3].udp droppedPkBadChecksum:count 0
attr interpolationmode none
attr source packetDropReasonIsIncorrectlyReceived(packetDropped)
attr title "packets dropped (checksum error), count"
scalar UAVNetwork_OnlyBasicNode.basicHosts[3].app[0] "Pings sent" 49
scalar UAVNetwork_OnlyBasicNode.basicHosts[3].app[0] "ping loss rate (%)" 4.0816326530612
scalar UAVNetwork_OnlyBasicNode.basicHosts[3].app[0] "ping out-of-order rate (%)" 6.1224489795918
scalar UAVNetwork_OnlyBasicNode.basicHosts[3].app[0] pingRxSeq:count 50
attr interpolationmode none
attr title "ping rx seq, count"
scalar UAVNetwork_OnlyBasicNode.basicHosts[3].app[0] pingTxSeq:count 49
attr interpolationmode none
attr title "ping tx seq, count"
scalar UAVNetwork_OnlyBasicNode.basicHosts[3].app[0] numOutOfOrderArrivals:last 3
attr interpolationmode none
attr title "ping out-of-order arrivals, last"
scalar UAVNetwork_OnlyBasicNode.basicHosts[3].app[0] numLost:last 2
attr interpolationmode none
attr title "pings lost, last"
statistic UAVNetwork_OnlyBasicNode.basicHosts[3].app[0] rtt:histogram
field count 46
field mean 0.019648240865543
field stddev 0.051162813066718
field min 0.002266324882
field max 0.335427772679
field sum 0.903819079815
field sqrsum 0.13555195981958
attr interpolationmode none
attr title "ping round-trip time, histogram"
attr unit s
bin	-inf	0
bin	0	26
bin	0.005	5
bin	0.01	1
bin	0.015	6
bin	0.02	0
bin	0.025	2
bin	0.03	1
bin	0.035	0
bin	0.04	1
bin	0.045	1
bin	0.05	1
bin	0.055	0
bin	0.06	0
bin	0.065	0
bin	0.07	0
bin	0.075	0
bin	0.08	0
bin	0.085	0
bin	0.09	0
bin	0.095	0
bin	0.1	0
bin	0.105	1
bin	0.11	0
bin	0.115	0
bin	0.12	0
bin	0.125	0
bin	0.13	0
bin	0.135	0
bin	0.14	0
bin	0.145	0
bin	0.15	0
bin	0.155	0
bin	0.16	0
bin	0.165	0
bin	0.17	0
bin	0.175	0
bin	0.18	0
bin	0.185	0
bin	0.19	0
bin	0.195	0
bin	0.2	0
bin	0.205	0
bin	0.21	0
bin	0.215	0
bin	0.22	0
bin	0.225	0
bin	0.23	0
bin	0.235	0
bin	0.24	0
bin	0.245	0
bin	0.25	0
bin	0.255	0
bin	0.26	0
bin	0.265	0
bin	0.27	0
bin	0.275	0
bin	0.28	0
bin	0.285	0
bin	0.29	0
bin	0.295	0
bin	0.3	0
bin	0.305	0
bin	0.31	0
bin	0.315	0
bin	0.32	0
bin	0.325	0
bin	0.33	0
bin	0.335	1
bin	0.34	0
bin	0.345	0
bin	0.35	0
bin	0.355	0
bin	0.36	0
bin	0.365	0
bin	0.37	0
bin	0.375	0
bin	0.38	0
bin	0.385	0
bin	0.39	0
bin	0.395	0
bin	0.4	0
bin	0.405	0
bin	0.41	0
bin	0.415	0
bin	0.42	0
scalar UAVNetwork_OnlyBasicNode.basicHosts[4].lo[0].lo rcvdPkFromHl:count 2
attr interpolationmode none
attr source packetReceivedFromUpper
attr title "packets received from higher layer, count"
scalar UAVNetwork_OnlyBasicNode.basicHosts[4].lo[0].lo rcvdPkFromHl:sum(packetBytes) 168
attr interpolationmode none
attr source packetReceivedFromUpper
attr title "packets received from higher layer, sum(packetBytes)"
scalar UAVNetwork_OnlyBasicNode.basicHosts[4].lo[0].lo passedUpPk:count 2
attr interpolationmode none
attr source packetSentToUpper
attr title "packets passed to higher layer, count"
scalar UAVNetwork_OnlyBasicNode.basicHosts[4].lo[0].lo passedUpPk:sum(packetBytes) 168
attr interpolationmode none
attr source packetSentToUpper
attr title "packets passed to higher layer, sum(packetBytes)"
scalar UAVNetwork_OnlyBasicNode.basicHosts[4].wlan[0].mac numRetry 183
scalar UAVNetwork_OnlyBasicNode.basicHosts[4].wlan[0].mac numSentWithoutRetry 112
scalar UAVNetwork_OnlyBasicNode.basicHosts[4].wlan[0].mac numGivenUp 11
scalar UAVNetwork_OnlyBasicNode.basicHosts[4].wlan[0].mac numCollision 1861
scalar UAVNetwork_OnlyBasicNode.basicHosts[4].wlan[0].mac numSent 152
scalar UAVNetwork_OnlyBasicNode.basicHosts[4].wlan[0].mac numReceived 179
scalar UAVNetwork_OnlyBasicNode.basicHosts[4].wlan[0].mac numSentBroadcast 164
scalar UAVNetwork_OnlyBasicNode.basicHosts[4].wlan[0].mac numReceivedBroadcast 2049
scalar UAVNetwork_OnlyBasicNode.basicHosts[4].wlan[0].mac packetDropIncorrectlyReceived:count 1861
attr interpolationmode none
attr source packetDropReasonIsIncorrectlyReceived(packetDropped)
attr title "packet drop: incorrectly received, count"
scalar UAVNetwork_OnlyBasicNode.basicHosts[4].wlan[0].mac packetDropIncorrectlyReceived:sum(packetBytes) 128932
attr interpolationmode none
attr source packetDropReasonIsIncorrectlyReceived(packetDropped)
attr title "packet drop: incorrectly received, sum(packetBytes)"
scalar UAVNetwork_OnlyBasicNode.basicHosts[4].wlan[0].mac packetDropNotAddressedToUs:count 5768
attr interpolationmode none
attr source packetDropReasonIsNotAddressedToUs(packetDropped)
attr title "packet drop: not addressed to us, count"
scalar UAVNetwork_OnlyBasicNode.basicHosts[4].wlan[0].mac packetDropNotAddressedToUs:sum(packetBytes) 514940
attr interpolationmode none
attr source packetDropReasonIsNotAddressedToUs(packetDropped)
attr title "packet drop: not addressed to us, sum(packetBytes)"
scalar UAVNetwork_OnlyBasicNode.basicHosts[4].wlan[0].mac packetDropQueueOverflow:count 0
attr interpolationmode none
attr source packetDropReasonIsQueueOverflow(packetDropped)
attr title "packet drop: queue overflow, count"
scalar UAVNetwork_OnlyBasicNode.basicHosts[4].wlan[0].mac packetDropQueueOverflow:sum(packetBytes) 0
attr interpolationmode none
attr source packetDropReasonIsQueueOverflow(packetDropped)
attr title "packet drop: queue overflow, sum(packetBytes)"
scalar UAVNetwork_OnlyBasicNode.basicHosts[4].wlan[0].mac packetDropRetryLimitReached:count 11
attr interpolationmode none
attr source packetDropReasonIsRetryLimitReached(packetDropped)
attr title "packet drop: retry limit reached, count"
scalar UAVNetwork_OnlyBasicNode.basicHosts[4].wlan[0].mac packetDropRetryLimitReached:sum(packetBytes) 960
attr interpolationmode none
attr source packetDropReasonIsRetryLimitReached(packetDropped)
attr title "packet drop: retry limit reached, sum(packetBytes)"
scalar UAVNetwork_OnlyBasicNode.basicHosts[4].wlan[0].mac linkBroken:count 11
attr interpolationmode none
attr source linkBroken
attr title "link break, count"
statistic UAVNetwork_OnlyBasicNode.basicHosts[4].wlan[0].radio minSnir:histogram
field count 13773
field mean 13.608349424132
field stddev 22.101746625405
field min 0.022544607949769
field max 478.82270106357
field sum 187427.79661856
field sqrsum 9278028.7202032
attr source minimumSnir(packetSentToUpper)
attr title "Min SNIR, histogram"
bin	-inf	0
bin	0	7460
bin	8	2938
bin	16	1492
bin	24	695
bin	32	348
bin	40	202
bin	48	146
bin	56	113
bin	64	87
bin	72	75
bin	80	49
bin	88	36
bin	96	27
bin	104	24
bin	112	11
bin	120	7
bin	128	8
bin	136	5
bin	144	5
bin	152	6
bin	160	4
bin	168	5
bin	176	3
bin	184	1
bin	192	1
bin	200	2
bin	208	0
bin	216	0
bin	224	1
bin	232	1
bin	240	0
bin	248	1
bin	256	1
bin	264	1
bin	272	0
bin	280	3
bin	288	1
bin	296	0
bin	304	0
bin	312	1
bin	320	0
bin	328	0
bin	336	1
bin	344	0
bin	352	1
bin	360	2
bin	368	2
bin	376	1
bin	384	1
bin	392	1
bin	400	2
bin	408	1
bin	416	0
bin	424	0
bin	432	0
bin	440	0
bin	448	0
bin	456	0
bin	464	0
bin	472	1
bin	480	0
statistic UAVNetwork_OnlyBasicNode.basicHosts[4].wlan[0].radio packetErrorRate:histogram
field count 13773
field mean 0.033816656101888
field stddev 0.16797414736598
field min 0
field max 1
field sum 465.7568044913
field sqrsum 404.33164461737
attr source packetErrorRate(packetSentToUpper)
attr title "Packet error rate, histogram"
bin	-inf	0
bin	0	13017
bin	0.02	60
bin	0.04	41
bin	0.06	30
bin	0.08	17
bin	0.1	24
bin	0.12	6
bin	0.14	7
bin	0.16	9
bin	0.18	8
bin	0.2	14
bin	0.22	10
bin	0.24	3
bin	0.26	13
bin	0.28	7
bin	0.3	5
bin	0.32	4
bin	0.34	8
bin	0.36	5
bin	0.38	11
bin	0.4	7
bin	0.42	3
bin	0.44	3
bin	0.46	5
bin	0.48	5
bin	0.5	6
bin	0.52	5
bin	0.54	7
bin	0.56	4
bin	0.58	5
bin	0.6	3
bin	0.62	7
bin	0.64	4
bin	0.66	5
bin	0.68	9
bin	0.7	4
bin	0.72	5
bin	0.74	3
bin	0.76	2
bin	0.78	3
bin	0.8	10
bin	0.82	5
bin	0.84	10
bin	0.86	8
bin	0.88	7
bin	0.9	10
bin	0.92	12
bin	0.94	10
bin	0.96	21
bin	0.98	220
bin	1	66
bin	1.02	0
bin	1.04	0
bin	1.06	0
bin	1.08	0
bin	1.1	0
bin	1.12	0
bin	1.14	0
bin	1.16	0
bin	1.18	0
bin	1.2	0
bin	1.22	0
bin	1.24	0
bin	1.26	0
statistic UAVNetwork_OnlyBasicNode.basicHosts[4].wlan[0].radio bitErrorRate:histogram
field count 13773
field mean 0.0010088369688077
field stddev 0.009073713586918
field min 0
field max 0.2509557932586
field sum 13.894711571389
field sqrsum 1.1478976348653
attr source bitErrorRate(packetSentToUpper)
attr title "Bit error rate, histogram"
bin	-inf	0
bin	0	13427
bin	0.004	79
bin	0.008	39
bin	0.012	23
bin	0.016	17
bin	0.02	18
bin	0.024	10
bin	0.028	16
bin	0.032	14
bin	0.036	9
bin	0.04	15
bin	0.044	12
bin	0.048	5
bin	0.052	6
bin	0.056	12
bin	0.06	6
bin	0.064	3
bin	0.068	6
bin	0.072	5
bin	0.076	4
bin	0.08	1
bin	0.084	5
bin	0.088	1
bin	0.092	1
bin	0.096	1
bin	0.1	5
bin	0.104	3
bin	0.108	5
bin	0.112	3
bin	0.116	1
bin	0.12	1
bin	0.124	2
bin	0.128	2
bin	0.132	2
bin	0.136	0
bin	0.14	3
bin	0.144	1
bin	0.148	0
bin	0.152	0
bin	0.156	2
bin	0.16	2
bin	0.164	0
bin	0.168	0
bin	0.172	1
bin	0.176	1
bin	0.18	0
bin	0.184	0
bin	0.188	0
bin	0.192	0
bin	0.196	0
bin	0.2	1
bin	0.204	1
bin	0.208	0
bin	0.212	0
bin	0.216	0
bin	0.22	0
bin	0.224	1
bin	0.228	0
bin	0.232	0
bin	0.236	0
bin	0.24	0
bin	0.244	0
bin	0.248	1
bin	0.252	0
statistic UAVNetwork_OnlyBasicNode.basicHosts[4].wlan[0].radio symbolErrorRate:histogram
field count 13773
field mean 0.0010088369688077
field stddev 0.009073713586918
field min 0
field max 0.2509557932586
field sum 13.894711571389
field sqrsum 1.1478976348653
attr source symbolErrorRate(packetSentToUpper)
attr title "Symbol error rate, histogram"
bin	-inf	0
bin	0	13427
bin	0.004	79
bin	0.008	39
bin	0.012	23
bin	0.016	17
bin	0.02	18
bin	0.024	10
bin	0.028	16
bin	0.032	14
bin	0.036	9
bin	0.04	15
bin	0.044	12
bin	0.048	5
bin	0.052	6
bin	0.056	12
bin	0.06	6
bin	0.064	3
bin	0.068	6
bin	0.072	5
bin	0.076	4
bin	0.08	1
bin	0.084	5
bin	0.088	1
bin	0.092	1
bin	0.096	1
bin	0.1	5
bin	0.104	3
bin	0.108	5
bin	0.112	3
bin	0.116	1
bin	0.12	1
bin	0.124	2
bin	0.128	2
bin	0.132	2
bin	0.136	0
bin	0.14	3
bin	0.144	1
bin	0.148	0
bin	0.152	0
bin	0.156	2
bin	0.16	2
bin	0.164	0
bin	0.168	0
bin	0.172	1
bin	0.176	1
bin	0.18	0
bin	0.184	0
bin	0.188	0
bin	0.192	0
bin	0.196	0
bin	0.2	1
bin	0.204	1
bin	0.208	0
bin	0.212	0
bin	0.216	0
bin	0.22	0
bin	0.224	1
bin	0.228	0
bin	0.232	0
bin	0.236	0
bin	0.24	0
bin	0.244	0
bin	0.248	1
bin	0.252	0
scalar UAVNetwork_OnlyBasicNode.basicHosts[4].wlan[0].radio transmissionState:count 2756
attr interpolationmode sample-hold
attr source transmissionStateChanged
attr title "Radio transmission state, count"
scalar UAVNetwork_OnlyBasicNode.basicHosts[4].wlan[0].radio receptionState:count 33792
attr interpolationmode sample-hold
attr source receptionStateChanged
attr title "Radio reception state, count"
scalar UAVNetwork_OnlyBasicNode.basicHosts[4].wlan[0].radio radioMode:count 1381
attr interpolationmode sample-hold
attr source radioModeChanged
attr title "Radio mode, count"
scalar UAVNetwork_OnlyBasicNode.basicHosts[4].ipv4.ip packetDropAddressResolutionFailed:count 0
attr interpolationmode none
attr source packetDropReasonIsAddressResolutionFailed(packetDropped)
attr title "packet drop: address resolution failed, count"
scalar UAVNetwork_OnlyBasicNode.basicHosts[4].ipv4.ip packetDropAddressResolutionFailed:sum(packetBytes) 0
attr interpolationmode none
attr source packetDropReasonIsAddressResolutionFailed(packetDropped)
attr title "packet drop: address resolution failed, sum(packetBytes)"
scalar UAVNetwork_OnlyBasicNode.basicHosts[4].ipv4.ip packetDropHopLimitReached:count 0
attr interpolationmode none
attr source packetDropReasonIsHopLimitReached(packetDropped)
attr title "packet drop: hop limit reached, count"
scalar UAVNetwork_OnlyBasicNode.basicHosts[4].ipv4.ip packetDropHopLimitReached:sum(packetBytes) 0
attr interpolationmode none
attr source packetDropReasonIsHopLimitReached(packetDropped)
attr title "packet drop: hop limit reached, sum(packetBytes)"
scalar UAVNetwork_OnlyBasicNode.basicHosts[4].ipv4.ip packetDropForwardingDisabled:count 0
attr interpolationmode none
attr source packetDropReasonIsForwardingDisabled(packetDropped)
attr title "packet drop: forwarding disabled, count"
scalar UAVNetwork_OnlyBasicNode.basicHosts[4].ipv4.ip packetDropForwardingDisabled:sum(packetBytes) 0
attr interpolationmode none
attr source packetDropReasonIsForwardingDisabled(packetDropped)
attr title "packet drop: forwarding disabled, sum(packetBytes)"
scalar UAVNetwork_OnlyBasicNode.basicHosts[4].ipv4.ip packetDropNoInterfaceFound:count 0
attr interpolationmode none
attr source packetDropReasonIsNoInterfaceFound(packetDropped)
attr title "packet drop: no interface found, count"
scalar UAVNetwork_OnlyBasicNode.basicHosts[4].ipv4.ip packetDropNoInterfaceFound:sum(packetBytes) 0
attr interpolationmode none
attr source packetDropReasonIsNoInterfaceFound(packetDropped)
attr title "packet drop: no interface found, sum(packetBytes)"
scalar UAVNetwork_OnlyBasicNode.basicHosts[4].ipv4.ip packetDropNoRouteFound:count 0
attr interpolationmode none
attr source packetDropReasonIsNoRouteFound(packetDropped)
attr title "packet drop: no route found, count"
scalar UAVNetwork_OnlyBasicNode.basicHosts[4].ipv4.ip packetDropNoRouteFound:sum(packetBytes) 0
attr interpolationmode none
attr source packetDropReasonIsNoRouteFound(packetDropped)
attr title "packet drop: no route found, sum(packetBytes)"
scalar UAVNetwork_OnlyBasicNode.basicHosts[4].ipv4.ip packetDropUndefined:count 0
attr interpolationmode none
attr source packetDropReasonIsUndefined(packetDropped)
attr title "packet drop: undefined, count"
scalar UAVNetwork_OnlyBasicNode.basicHosts[4].ipv4.ip packetDropUndefined:sum(packetBytes) 0
attr interpolationmode none
attr source packetDropReasonIsUndefined(packetDropped)
attr title "packet drop: undefined, sum(packetBytes)"
scalar UAVNetwork_OnlyBasicNode.basicHosts[4].udp packetReceived:count 0
attr interpolationmode none
attr source packetReceived
attr title "packets received, count"
scalar UAVNetwork_OnlyBasicNode.basicHosts[4].udp packetReceived:sum(packetBytes) 0
attr interpolationmode none
attr source packetReceived
attr title "packets received, sum(packetBytes)"
scalar UAVNetwork_OnlyBasicNode.basicHosts[4].udp packetSent:count 0
attr interpolationmode none
attr source packetSent
attr title "packets sent, count"
scalar UAVNetwork_OnlyBasicNode.basicHosts[4].udp packetSent:sum(packetBytes) 0
attr interpolationmode none
attr source packetSent
attr title "packets sent, sum(packetBytes)"
scalar UAVNetwork_OnlyBasicNode.basicHosts[4].udp passedUpPk:count 0
attr interpolationmode none
attr source packetSentToUpper
[...]
attr interpolationmode none
attr source packetDropReasonIsNoInterfaceFound(packetDropped)
attr title "packet drop: no interface found, sum(packetBytes)"
scalar UAVNetwork_OnlyBasicNode.basicHosts[28].ipv4.ip packetDropNoRouteFound:count 0
attr interpolationmode none
attr source packetDropReasonIsNoRouteFound(packetDropped)
attr title "packet drop: no route found, count"
scalar UAVNetwork_OnlyBasicNode.basicHosts[28].ipv4.ip packetDropNoRouteFound:sum(packetBytes) 0
attr interpolationmode none
attr source packetDropReasonIsNoRouteFound(packetDropped)
attr title "packet drop: no route found, sum(packetBytes)"
scalar UAVNetwork_OnlyBasicNode.basicHosts[28].ipv4.ip packetDropUndefined:count 0
attr interpolationmode none
attr source packetDropReasonIsUndefined(packetDropped)
attr title "packet drop: undefined, count"
scalar UAVNetwork_OnlyBasicNode.basicHosts[28].ipv4.ip packetDropUndefined:sum(packetBytes) 0
attr interpolationmode none
attr source packetDropReasonIsUndefined(packetDropped)
attr title "packet drop: undefined, sum(packetBytes)"
scalar UAVNetwork_OnlyBasicNode.basicHosts[28].udp packetReceived:count 0
attr interpolationmode none
attr source packetReceived
attr title "packets received, count"
scalar UAVNetwork_OnlyBasicNode.basicHosts[28].udp packetReceived:sum(packetBytes) 0
attr interpolationmode none
attr source packetReceived
attr title "packets received, sum(packetBytes)"
scalar UAVNetwork_OnlyBasicNode.basicHosts[28].udp packetSent:count 0
attr interpolationmode none
attr source packetSent
attr title "packets sent, count"
scalar UAVNetwork_OnlyBasicNode.basicHosts[28].udp packetSent:sum(packetBytes) 0
attr interpolationmode none
attr source packetSent
attr title "packets sent, sum(packetBytes)"
scalar UAVNetwork_OnlyBasicNode.basicHosts[28].udp passedUpPk:count 0
attr interpolationmode none
attr source packetSentToUpper
attr title "packets passed up, count"
scalar UAVNetwork_OnlyBasicNode.basicHosts[28].udp droppedPkWrongPort:count 0
attr interpolationmode none
attr source packetDropReasonIsNoPortFound(packetDropped)
attr title "packets dropped (wrong port), count"
scalar UAVNetwork_OnlyBasicNode.basicHosts[28].udp droppedPkBadChecksum:count 0
attr interpolationmode none
attr source packetDropReasonIsIncorrectlyReceived(packetDropped)
attr title "packets dropped (checksum error), count"
scalar UAVNetwork_OnlyBasicNode.basicHosts[28].app[0] "Pings sent" 49
scalar UAVNetwork_OnlyBasicNode.basicHosts[28].app[0] "ping loss rate (%)" 0
scalar UAVNetwork_OnlyBasicNode.basicHosts[28].app[0] "ping out-of-order rate (%)" 14.285714285714
scalar UAVNetwork_OnlyBasicNode.basicHosts[28].app[0] pingRxSeq:count 56
attr interpolationmode none
attr title "ping rx seq, count"
scalar UAVNetwork_OnlyBasicNode.basicHosts[28].app[0] pingTxSeq:count 49
attr interpolationmode none
attr title "ping tx seq, count"
scalar UAVNetwork_OnlyBasicNode.basicHosts[28].app[0] numOutOfOrderArrivals:last 7
attr interpolationmode none
attr title "ping out-of-order arrivals, last"
scalar UAVNetwork_OnlyBasicNode.basicHosts[28].app[0] numLost:last 0
attr interpolationmode none
attr title "pings lost, last"
statistic UAVNetwork_OnlyBasicNode.basicHosts[28].app[0] rtt:histogram
field count 49
field mean 0.0072261929192857
field stddev 0.014030398779657
field min 0.002125076621
field max 0.071342360995
field sum 0.354083453045
field sqrsum 0.012007575657207
attr interpolationmode none
attr title "ping round-trip time, histogram"
attr unit s
bin	-inf	0
bin	0	0
bin	0.001	0
bin	0.002	31
bin	0.003	7
bin	0.004	2
bin	0.005	1
bin	0.006	0
bin	0.007	0
bin	0.008	1
bin	0.009	0
bin	0.01	1
bin	0.011	1
bin	0.012	0
bin	0.013	1
bin	0.014	0
bin	0.015	1
bin	0.016	0
bin	0.017	0
bin	0.018	0
bin	0.019	0
bin	0.02	0
bin	0.021	0
bin	0.022	0
bin	0.023	0
bin	0.024	0
bin	0.025	0
bin	0.026	0
bin	0.027	0
bin	0.028	0
bin	0.029	0
bin	0.03	0
bin	0.031	0
bin	0.032	0
bin	0.033	0
bin	0.034	0
bin	0.035	1
bin	0.036	0
bin	0.037	0
bin	0.038	0
bin	0.039	0
bin	0.04	0
bin	0.041	0
bin	0.042	0
bin	0.043	0
bin	0.044	0
bin	0.045	0
bin	0.046	0
bin	0.047	0
bin	0.048	0
bin	0.049	0
bin	0.05	0
bin	0.051	0
bin	0.052	0
bin	0.053	0
bin	0.054	0
bin	0.055	0
bin	0.056	0
bin	0.057	0
bin	0.058	0
bin	0.059	0
bin	0.06	0
bin	0.061	0
bin	0.062	0
bin	0.063	0
bin	0.064	0
bin	0.065	0
bin	0.066	0
bin	0.067	1
bin	0.068	0
bin	0.069	0
bin	0.07	0
bin	0.071	1
bin	0.072	0
bin	0.073	0
bin	0.074	0
bin	0.075	0
bin	0.076	0
bin	0.077	0
bin	0.078	0
bin	0.079	0
bin	0.08	0
bin	0.081	0
bin	0.082	0
bin	0.083	0
bin	0.084	0
bin	0.085	0
bin	0.086	0
bin	0.087	0
bin	0.088	0
bin	0.089	0
scalar UAVNetwork_OnlyBasicNode.basicHosts[29].lo[0].lo rcvdPkFromHl:count 0
attr interpolationmode none
attr source packetReceivedFromUpper
attr title "packets received from higher layer, count"
scalar UAVNetwork_OnlyBasicNode.basicHosts[29].lo[0].lo rcvdPkFromHl:sum(packetBytes) 0
attr interpolationmode none
attr source packetReceivedFromUpper
attr title "packets received from higher layer, sum(packetBytes)"
scalar UAVNetwork_OnlyBasicNode.basicHosts[29].lo[0].lo passedUpPk:count 0
attr interpolationmode none
attr source packetSentToUpper
attr title "packets passed to higher layer, count"
scalar UAVNetwork_OnlyBasicNode.basicHosts[29].lo[0].lo passedUpPk:sum(packetBytes) 0
attr interpolationmode none
attr source packetSentToUpper
attr title "packets passed to higher layer, sum(packetBytes)"
scalar UAVNetwork_OnlyBasicNode.basicHosts[29].wlan[0].mac numRetry 102
scalar UAVNetwork_OnlyBasicNode.basicHosts[29].wlan[0].mac numSentWithoutRetry 88
scalar UAVNetwork_OnlyBasicNode.basicHosts[29].wlan[0].mac numGivenUp 9
scalar UAVNetwork_OnlyBasicNode.basicHosts[29].wlan[0].mac numCollision 1430
scalar UAVNetwork_OnlyBasicNode.basicHosts[29].wlan[0].mac numSent 111
scalar UAVNetwork_OnlyBasicNode.basicHosts[29].wlan[0].mac numReceived 116
scalar UAVNetwork_OnlyBasicNode.basicHosts[29].wlan[0].mac numSentBroadcast 166
scalar UAVNetwork_OnlyBasicNode.basicHosts[29].wlan[0].mac numReceivedBroadcast 2179
scalar UAVNetwork_OnlyBasicNode.basicHosts[29].wlan[0].mac packetDropIncorrectlyReceived:count 1430
attr interpolationmode none
attr source packetDropReasonIsIncorrectlyReceived(packetDropped)
attr title "packet drop: incorrectly received, count"
scalar UAVNetwork_OnlyBasicNode.basicHosts[29].wlan[0].mac packetDropIncorrectlyReceived:sum(packetBytes) 98168
attr interpolationmode none
attr source packetDropReasonIsIncorrectlyReceived(packetDropped)
attr title "packet drop: incorrectly received, sum(packetBytes)"
scalar UAVNetwork_OnlyBasicNode.basicHosts[29].wlan[0].mac packetDropNotAddressedToUs:count 5752
attr interpolationmode none
attr source packetDropReasonIsNotAddressedToUs(packetDropped)
attr title "packet drop: not addressed to us, count"
scalar UAVNetwork_OnlyBasicNode.basicHosts[29].wlan[0].mac packetDropNotAddressedToUs:sum(packetBytes) 516612
attr interpolationmode none
attr source packetDropReasonIsNotAddressedToUs(packetDropped)
attr title "packet drop: not addressed to us, sum(packetBytes)"
scalar UAVNetwork_OnlyBasicNode.basicHosts[29].wlan[0].mac packetDropQueueOverflow:count 0
attr interpolationmode none
attr source packetDropReasonIsQueueOverflow(packetDropped)
attr title "packet drop: queue overflow, count"
scalar UAVNetwork_OnlyBasicNode.basicHosts[29].wlan[0].mac packetDropQueueOverflow:sum(packetBytes) 0
attr interpolationmode none
attr source packetDropReasonIsQueueOverflow(packetDropped)
attr title "packet drop: queue overflow, sum(packetBytes)"
scalar UAVNetwork_OnlyBasicNode.basicHosts[29].wlan[0].mac packetDropRetryLimitReached:count 9
attr interpolationmode none
attr source packetDropReasonIsRetryLimitReached(packetDropped)
attr title "packet drop: retry limit reached, count"
scalar UAVNetwork_OnlyBasicNode.basicHosts[29].wlan[0].mac packetDropRetryLimitReached:sum(packetBytes) 572
attr interpolationmode none
attr source packetDropReasonIsRetryLimitReached(packetDropped)
attr title "packet drop: retry limit reached, sum(packetBytes)"
scalar UAVNetwork_OnlyBasicNode.basicHosts[29].wlan[0].mac linkBroken:count 9
attr interpolationmode none
attr source linkBroken
attr title "link break, count"
statistic UAVNetwork_OnlyBasicNode.basicHosts[29].wlan[0].radio minSnir:histogram
field count 13413
field mean 50.25570997388
field stddev 602.34669212145
field min 0.0050410039185646
field max 28085.6394225
field sum 674079.83787965
field sqrsum 4900038821.9111
attr source minimumSnir(packetSentToUpper)
attr title "Min SNIR, histogram"
bin	-inf	0
bin	0	13303
bin	540	59
bin	1080	9
bin	1620	4
bin	2160	2
bin	2700	3
bin	3240	4
bin	3780	2
bin	4320	1
bin	4860	2
bin	5400	1
bin	5940	2
bin	6480	1
bin	7020	0
bin	7560	2
bin	8100	0
bin	8640	3
bin	9180	0
bin	9720	0
bin	10260	2
bin	10800	2
bin	11340	0
bin	11880	2
bin	12420	0
bin	12960	0
bin	13500	1
bin	14040	0
bin	14580	0
bin	15120	1
bin	15660	0
bin	16200	2
bin	16740	1
bin	17280	0
bin	17820	0
bin	18360	0
bin	18900	0
bin	19440	0
bin	19980	0
bin	20520	3
bin	21060	0
bin	21600	0
bin	22140	0
bin	22680	0
bin	23220	0
bin	23760	0
bin	24300	0
bin	24840	0
bin	25380	0
bin	25920	0
bin	26460	0
bin	27000	0
bin	27540	0
bin	28080	1
bin	28620	0
statistic UAVNetwork_OnlyBasicNode.basicHosts[29].wlan[0].radio packetErrorRate:histogram
field count 13413
field mean 0.028783113672606
field stddev 0.15616722834761
field min 0
field max 1
field sum 386.06790369067
field sqrsum 338.20681780676
attr source packetErrorRate(packetSentToUpper)
attr title "Packet error rate, histogram"
bin	-inf	0
bin	0	12807
bin	0.02	45
bin	0.04	23
bin	0.06	19
bin	0.08	20
bin	0.1	16
bin	0.12	7
bin	0.14	13
bin	0.16	6
bin	0.18	7
bin	0.2	5
bin	0.22	4
bin	0.24	10
bin	0.26	5
bin	0.28	5
bin	0.3	7
bin	0.32	0
bin	0.34	10
bin	0.36	8
bin	0.38	3
bin	0.4	7
bin	0.42	3
bin	0.44	2
bin	0.46	5
bin	0.48	2
bin	0.5	3
bin	0.52	4
bin	0.54	3
bin	0.56	5
bin	0.58	2
bin	0.6	3
bin	0.62	7
bin	0.64	5
bin	0.66	6
bin	0.68	3
bin	0.7	4
bin	0.72	4
bin	0.74	3
bin	0.76	5
bin	0.78	1
bin	0.8	5
bin	0.82	3
bin	0.84	6
bin	0.86	9
bin	0.88	6
bin	0.9	6
bin	0.92	11
bin	0.94	14
bin	0.96	16
bin	0.98	166
bin	1	74
bin	1.02	0
bin	1.04	0
bin	1.06	0
bin	1.08	0
bin	1.1	0
bin	1.12	0
bin	1.14	0
bin	1.16	0
bin	1.18	0
bin	1.2	0
bin	1.22	0
bin	1.24	0
bin	1.26	0
statistic UAVNetwork_OnlyBasicNode.basicHosts[29].wlan[0].radio bitErrorRate:histogram
field count 13413
field mean 0.0011369799145025
field stddev 0.012018011721309
field min 0
field max 0.37542385933412
field sum 15.250311593222
field sqrsum 1.9544694060694
attr source bitErrorRate(packetSentToUpper)
attr title "Bit error rate, histogram"
bin	-inf	0
bin	0	13134
bin	0.005	53
bin	0.01	37
bin	0.015	28
bin	0.02	14
bin	0.025	11
bin	0.03	14
bin	0.035	14
bin	0.04	7
bin	0.045	8
bin	0.05	8
bin	0.055	5
bin	0.06	6
bin	0.065	5
bin	0.07	5
bin	0.075	3
bin	0.08	5
bin	0.085	8
bin	0.09	4
bin	0.095	1
bin	0.1	0
bin	0.105	3
bin	0.11	4
bin	0.115	2
bin	0.12	1
bin	0.125	4
bin	0.13	1
bin	0.135	2
bin	0.14	3
bin	0.145	2
bin	0.15	0
bin	0.155	0
bin	0.16	2
bin	0.165	2
bin	0.17	0
bin	0.175	0
bin	0.18	2
bin	0.185	1
bin	0.19	0
bin	0.195	0
bin	0.2	0
bin	0.205	0
bin	0.21	0
bin	0.215	0
bin	0.22	3
bin	0.225	2
bin	0.23	1
bin	0.235	0
bin	0.24	0
bin	0.245	0
bin	0.25	1
bin	0.255	1
bin	0.26	0
bin	0.265	0
bin	0.27	1
bin	0.275	1
bin	0.28	0
bin	0.285	1
bin	0.29	1
bin	0.295	0
bin	0.3	0
bin	0.305	0
bin	0.31	0
bin	0.315	0
bin	0.32	0
bin	0.325	0
bin	0.33	0
bin	0.335	0
bin	0.34	0
bin	0.345	0
bin	0.35	1
bin	0.355	0
bin	0.36	0
bin	0.365	0
bin	0.37	0
bin	0.375	1
bin	0.38	0
statistic UAVNetwork_OnlyBasicNode.basicHosts[29].wlan[0].radio symbolErrorRate:histogram
field count 13413
field mean 0.0011369799145025
field stddev 0.012018011721309
field min 0
field max 0.37542385933412
field sum 15.250311593222
field sqrsum 1.9544694060694
attr source symbolErrorRate(packetSentToUpper)
attr title "Symbol error rate, histogram"
bin	-inf	0
bin	0	13134
bin	0.005	53
bin	0.01	37
bin	0.015	28
bin	0.02	14
bin	0.025	11
bin	0.03	14
bin	0.035	14
bin	0.04	7
bin	0.045	8
bin	0.05	8
bin	0.055	5
bin	0.06	6
bin	0.065	5
bin	0.07	5
bin	0.075	3
bin	0.08	5
bin	0.085	8
bin	0.09	4
bin	0.095	1
bin	0.1	0
bin	0.105	3
bin	0.11	4
bin	0.115	2
bin	0.12	1
bin	0.125	4
bin	0.13	1
bin	0.135	2
bin	0.14	3
bin	0.145	2
bin	0.15	0
bin	0.155	0
bin	0.16	2
bin	0.165	2
bin	0.17	0
bin	0.175	0
bin	0.18	2
bin	0.185	1
bin	0.19	0
bin	0.195	0
bin	0.2	0
bin	0.205	0
bin	0.21	0
bin	0.215	0
bin	0.22	3
bin	0.225	2
bin	0.23	1
bin	0.235	0
bin	0.24	0
bin	0.245	0
bin	0.25	1
bin	0.255	1
bin	0.26	0
bin	0.265	0
bin	0.27	1
bin	0.275	1
bin	0.28	0
bin	0.285	1
bin	0.29	1
bin	0.295	0
bin	0.3	0
bin	0.305	0
bin	0.31	0
bin	0.315	0
bin	0.32	0
bin	0.325	0
bin	0.33	0
bin	0.335	0
bin	0.34	0
bin	0.345	0
bin	0.35	1
bin	0.355	0
bin	0.36	0
bin	0.365	0
bin	0.37	0
bin	0.375	1
bin	0.38	0
scalar UAVNetwork_OnlyBasicNode.basicHosts[29].wlan[0].radio transmissionState:count 2016
attr interpolationmode sample-hold
attr source transmissionStateChanged
attr title "Radio transmission state, count"
scalar UAVNetwork_OnlyBasicNode.basicHosts[29].wlan[0].radio receptionState:count 33520
attr interpolationmode sample-hold
attr source receptionStateChanged
attr title "Radio reception state, count"
scalar UAVNetwork_OnlyBasicNode.basicHosts[29].wlan[0].radio radioMode:count 1011
attr interpolationmode sample-hold
attr source radioModeChanged
attr title "Radio mode, count"
scalar UAVNetwork_OnlyBasicNode.basicHosts[29].ipv4.ip packetDropAddressResolutionFailed:count 0
attr interpolationmode none
attr source packetDropReasonIsAddressResolutionFailed(packetDropped)
attr title "packet drop: address resolution failed, count"
scalar UAVNetwork_OnlyBasicNode.basicHosts[29].ipv4.ip packetDropAddressResolutionFailed:sum(packetBytes) 0
attr interpolationmode none
attr source packetDropReasonIsAddressResolutionFailed(packetDropped)
attr title "packet drop: address resolution failed, sum(packetBytes)"
scalar UAVNetwork_OnlyBasicNode.basicHosts[29].ipv4.ip packetDropHopLimitReached:count 0
attr interpolationmode none
attr source packetDropReasonIsHopLimitReached(packetDropped)
attr title "packet drop: hop limit reached, count"
scalar UAVNetwork_OnlyBasicNode.basicHosts[29].ipv4.ip packetDropHopLimitReached:sum(packetBytes) 0
attr interpolationmode none
attr source packetDropReasonIsHopLimitReached(packetDropped)
attr title "packet drop: hop limit reached, sum(packetBytes)"
scalar UAVNetwork_OnlyBasicNode.basicHosts[29].ipv4.ip packetDropForwardingDisabled:count 0
attr interpolationmode none
attr source packetDropReasonIsForwardingDisabled(packetDropped)
attr title "packet drop: forwarding disabled, count"
scalar UAVNetwork_OnlyBasicNode.basicHosts[29].ipv4.ip packetDropForwardingDisabled:sum(packetBytes) 0
attr interpolationmode none
attr source packetDropReasonIsForwardingDisabled(packetDropped)
attr title "packet drop: forwarding disabled, sum(packetBytes)"
scalar UAVNetwork_OnlyBasicNode.basicHosts[29].ipv4.ip packetDropNoInterfaceFound:count 0
attr interpolationmode none
attr source packetDropReasonIsNoInterfaceFound(packetDropped)
attr title "packet drop: no interface found, count"
scalar UAVNetwork_OnlyBasicNode.basicHosts[29].ipv4.ip packetDropNoInterfaceFound:sum(packetBytes) 0
attr interpolationmode none
attr source packetDropReasonIsNoInterfaceFound(packetDropped)
attr title "packet drop: no interface found, sum(packetBytes)"
scalar UAVNetwork_OnlyBasicNode.basicHosts[29].ipv4.ip packetDropNoRouteFound:count 0
attr interpolationmode none
attr source packetDropReasonIsNoRouteFound(packetDropped)
attr title "packet drop: no route found, count"
scalar UAVNetwork_OnlyBasicNode.basicHosts[29].ipv4.ip packetDropNoRouteFound:sum(packetBytes) 0
attr interpolationmode none
attr source packetDropReasonIsNoRouteFound(packetDropped)
attr title "packet drop: no route found, sum(packetBytes)"
scalar UAVNetwork_OnlyBasicNode.basicHosts[29].ipv4.ip packetDropUndefined:count 0
attr interpolationmode none
attr source packetDropReasonIsUndefined(packetDropped)
attr title "packet drop: undefined, count"
scalar UAVNetwork_OnlyBasicNode.basicHosts[29].ipv4.ip packetDropUndefined:sum(packetBytes) 0
attr interpolationmode none
attr source packetDropReasonIsUndefined(packetDropped)
attr title "packet drop: undefined, sum(packetBytes)"
scalar UAVNetwork_OnlyBasicNode.basicHosts[29].udp packetReceived:count 0
attr interpolationmode none
attr source packetReceived
attr title "packets received, count"
scalar UAVNetwork_OnlyBasicNode.basicHosts[29].udp packetReceived:sum(packetBytes) 0
attr interpolationmode none
attr source packetReceived
attr title "packets received, sum(packetBytes)"
scalar UAVNetwork_OnlyBasicNode.basicHosts[29].udp packetSent:count 0
attr interpolationmode none
attr source packetSent
attr title "packets sent, count"
scalar UAVNetwork_OnlyBasicNode.basicHosts[29].udp packetSent:sum(packetBytes) 0
attr interpolationmode none
attr source packetSent
attr title "packets sent, sum(packetBytes)"
scalar UAVNetwork_OnlyBasicNode.basicHosts[29].udp passedUpPk:count 0
attr interpolationmode none
attr source packetSentToUpper
attr title "packets passed up, count"
scalar UAVNetwork_OnlyBasicNode.basicHosts[29].udp droppedPkWrongPort:count 0
attr interpolationmode none
attr source packetDropReasonIsNoPortFound(packetDropped)
attr title "packets dropped (wrong port), count"
scalar UAVNetwork_OnlyBasicNode.basicHosts[29].udp droppedPkBadChecksum:count 0
attr interpolationmode none
attr source packetDropReasonIsIncorrectlyReceived(packetDropped)
attr title "packets dropped (checksum error), count"
scalar UAVNetwork_OnlyBasicNode.basicHosts[29].app[0] "Pings sent" 49
scalar UAVNetwork_OnlyBasicNode.basicHosts[29].app[0] "ping loss rate (%)" 6.1224489795918
scalar UAVNetwork_OnlyBasicNode.basicHosts[29].app[0] "ping out-of-order rate (%)" 14.285714285714
scalar UAVNetwork_OnlyBasicNode.basicHosts[29].app[0] pingRxSeq:count 53
attr interpolationmode none
attr title "ping rx seq, count"
scalar UAVNetwork_OnlyBasicNode.basicHosts[29].app[0] pingTxSeq:count 49
attr interpolationmode none
attr title "ping tx seq, count"
scalar UAVNetwork_OnlyBasicNode.basicHosts[29].app[0] numOutOfOrderArrivals:last 7
attr interpolationmode none
attr title "ping out-of-order arrivals, last"
scalar UAVNetwork_OnlyBasicNode.basicHosts[29].app[0] numLost:last 3
attr interpolationmode none
attr title "pings lost, last"
statistic UAVNetwork_OnlyBasicNode.basicHosts[29].app[0] rtt:histogram
field count 46
field mean 0.010852206288217
field stddev 0.018756377160842
field min 0.002296998298
field max 0.091641279825
field sum 0.499201489258
field sqrsum 0.021248513329801
attr interpolationmode none
attr title "ping round-trip time, histogram"
attr unit s
bin	-inf	0
bin	0	0
bin	0.002	28
bin	0.004	5
bin	0.006	2
bin	0.008	1
bin	0.01	0
bin	0.012	0
bin	0.014	0
bin	0.016	1
bin	0.018	2
bin	0.02	1
bin	0.022	2
bin	0.024	1
bin	0.026	0
bin	0.028	0
bin	0.03	0
bin	0.032	0
bin	0.034	0
bin	0.036	0
bin	0.038	1
bin	0.04	0
bin	0.042	0
bin	0.044	0
bin	0.046	0
bin	0.048	0
bin	0.05	0
bin	0.052	0
bin	0.054	0
bin	0.056	0
bin	0.058	0
bin	0.06	0
bin	0.062	0
bin	0.064	0
bin	0.066	0
bin	0.068	0
bin	0.07	0
bin	0.072	0
bin	0.074	0
bin	0.076	0
bin	0.078	0
bin	0.08	0
bin	0.082	0
bin	0.084	0
bin	0.086	1
bin	0.088	0
bin	0.09	1
bin	0.092	0
bin	0.094	0
bin	0.096	0
bin	0.098	0
bin	0.1	0
bin	0.102	0
bin	0.104	0
bin	0.106	0
bin	0.108	0
bin	0.11	0
bin	0.112	0
bin	0.114	0

