file 38865380 1609922066                                        
version 2
run General-3-20210106-16:33:07-3664
attr configname General
attr datetime 20210106-16:33:07
attr experiment General
attr inifile multi_test_only_basicNode.ini
attr iterationvars "$pathlosstype=\"LogNormalShadowing\""
attr iterationvarsf pathlosstype=LogNormalShadowing-
attr measurement "$pathlosstype=\"LogNormalShadowing\""
attr network myuav.UAVNetwork_OnlyBasicNode
attr processid 3664
attr repetition 0
attr replication #0
attr resultdir results
attr runnumber 3
attr seedset 3
itervar pathlosstype "\"LogNormalShadowing\""
param *.configurator.addStaticRoutes false
param **.arp.typename "\"GlobalArp\""
param **.basicHosts[*].forwarding true
param **.basicHosts[*].multicastForwarding true
param *.numHosts 30
param *.configurator.config "xmldoc(\"multi_test.xml\")"
param *.configurator.dumpAddresses true
param *.configurator.dumpTopology true
param *.configurator.dumpLinks true
param *.configurator.dumpRoutes true
param *.configurator.dumpConfig "\"multi_test_dump.xml\""
param *.visualizer.osgVisualizer.typename "\"IntegratedOsgVisualizer\""
param *.visualizer.osgVisualizer.sceneVisualizer.clearColor "\"skyblue\""
param *.visualizer.osgVisualizer.sceneVisualizer.sceneImage "\"showcases/desert\""
param *.visualizer.osgVisualizer.sceneVisualizer.sceneImageSize 2000m
param *.visualizer.osgVisualizer.sceneVisualizer.axisLength 500m
param *.visualizer.osgVisualizer.sceneVisualizer.sceneMinX 0m
param *.visualizer.osgVisualizer.sceneVisualizer.sceneMinY 0m
param *.visualizer.osgVisualizer.sceneVisualizer.sceneMinZ 0m
param *.visualizer.osgVisualizer.sceneVisualizer.sceneMaxX 2000m
param *.visualizer.osgVisualizer.sceneVisualizer.sceneMaxY 2000m
param *.visualizer.osgVisualizer.sceneVisualizer.sceneMaxZ 1000m
param *.visualizer.*.mobilityVisualizer.displayMovementTrails true
param *.visualizer.*.mobilityVisualizer.animationSpeed 1
param *.basicHosts[*].wlan[0].typename "\"WirelessInterface\""
param *.basicHosts[*].wlan[0].mac.typename "\"CsmaCaMac\""
param *.basicHosts[*].wlan[0].mac.ackTimeout 300us
param **.wlan[*].queue.typename "\"DropTailQueue\""
param *.basicHosts[*].wlan[0].mac.maxQueueSize 10000
param *.radioMedium.typename "\"ApskScalarRadioMedium\""
param *.radioMedium.backgroundNoise.power -90dBm
param *.radioMedium.mediumLimitCache.carrierFrequency 2GHz
param *.basicHosts[*].wlan[0].radio.typename "\"ApskScalarRadio\""
param *.basicHosts[*].wlan[0].radio.carrierFrequency 2GHz
param **.ignorePartialInterference true
param *.basicHosts[*].wlan[0].radio.bandwidth 10MHz
param *.basicHosts[*].wlan[0].radio.transmitter.preambleDuration 10us
param *.basicHosts[*].wlan[0].radio.transmitter.headerLength 8b
param *.basicHosts[*].wlan[0].radio.receiver.sensitivity -85dBm
param *.basicHosts[*].wlan[0].radio.receiver.energyDetection -85dBm
param *.basicHosts[*].wlan[0].radio.receiver.snirThreshold 4dB
param **.basicHosts[*].**.bitrate 1Mbps
param **.basicHosts[*].wlan[*].radio.transmitter.power 15mW
param *.radioMedium.pathLoss.typename "\"LogNormalShadowing\""
param *.physicalEnvironment.coordinateSystemModule "\"coordinateSystem\""
param *.*.mobility.coordinateSystemModule "\"coordinateSystem\""
param *.physicalEnvironment.config "xmldoc(\"obstacles.xml\")"
param *.radioMedium.obstacleLoss.typename "\"DielectricObstacleLoss\""
param **.basicHosts[*].app[*].typename "\"PingApp\""
param *.basicHosts[*].numApps 1
param **.basicHosts[*].app[*].count 1
param **.basicHosts[*].app[*].continuous true
param **.basicHosts[*].app[*].destAddr "\"*\""
param **.basicHosts[*].app[*].startTime uniform(3s,4s)
param **.basicHosts[*].app[*].printPing true
param **.basicHosts[*].mobility.typename "\"MassMobility\""
param **.basicHosts[*].mobility.initFromDisplayString false
param **.basicHosts[*].osgModel "\"3d/drone.ive.20.scale.0,0,90.rot\""
param **.basicHosts[*].mobility.initialMovementHeading "uniform(0deg, 360deg)"
param **.basicHosts[*].mobility.initialMovementElevation "uniform(-90deg, 90deg)"
param **.basicHosts[*].mobility.rotationAxisAngle uniform(-10deg,10deg)
param **.basicHosts[*].mobility.faceForward false
param **.basicHosts[*].mobility.speed "truncnormal(20mps, 4mps)"
param **.basicHosts[*].mobility.changeInterval "truncnormal(3s, 1s)"
param **.basicHosts[*].mobility.angleDelta "normal(-10deg, 10deg)"
param **.basicHosts[*].mobility.initialZ 200m
param **.basicHosts[*].mobility.constraintAreaMinZ 100m
param **.basicHosts[*].mobility.constraintAreaMaxZ 300m
param **.basicHosts[*].mobility.constraintAreaMinX 200m
param **.basicHosts[*].mobility.constraintAreaMaxX 1300m
param **.basicHosts[*].mobility.constraintAreaMinY 200m
param **.basicHosts[*].mobility.constraintAreaMaxY 1300m
param **.basicHosts[0].mobility.getOthersPosition true
param **.basicHosts[0].mobility.basicNodeNum 30
param **.basicHosts[0].mobility.routerNodeNum 0
param **.basicHosts[0].mobility.getAllNodeStatusInterval 0.01s
param **.basicHosts[0].mobility.networkName "\"UAVNetwork_OnlyBasicNode\""
param **.basicHosts[*].app[*].allowPingCluster true
param **.basicHosts[*].app[*].choosePingClusterPercent 99

vector 0 UAVNetwork_OnlyBasicNode.basicHosts[0].wlan[0].radio radioMode:vector ETV
attr interpolationmode sample-hold
attr source radioModeChanged
attr title "Radio mode, vector"
vector 1 UAVNetwork_OnlyBasicNode.basicHosts[1].wlan[0].radio radioMode:vector ETV
attr interpolationmode sample-hold
attr source radioModeChanged
attr title "Radio mode, vector"
vector 2 UAVNetwork_OnlyBasicNode.basicHosts[2].wlan[0].radio radioMode:vector ETV
attr interpolationmode sample-hold
attr source radioModeChanged
attr title "Radio mode, vector"
vector 3 UAVNetwork_OnlyBasicNode.basicHosts[3].wlan[0].radio radioMode:vector ETV
attr interpolationmode sample-hold
attr source radioModeChanged
attr title "Radio mode, vector"
vector 4 UAVNetwork_OnlyBasicNode.basicHosts[4].wlan[0].radio radioMode:vector ETV
attr interpolationmode sample-hold
attr source radioModeChanged
attr title "Radio mode, vector"
vector 5 UAVNetwork_OnlyBasicNode.basicHosts[5].wlan[0].radio radioMode:vector ETV
attr interpolationmode sample-hold
attr source radioModeChanged
attr title "Radio mode, vector"
vector 6 UAVNetwork_OnlyBasicNode.basicHosts[6].wlan[0].radio radioMode:vector ETV
attr interpolationmode sample-hold
attr source radioModeChanged
attr title "Radio mode, vector"
vector 7 UAVNetwork_OnlyBasicNode.basicHosts[7].wlan[0].radio radioMode:vector ETV
attr interpolationmode sample-hold
attr source radioModeChanged
attr title "Radio mode, vector"
vector 8 UAVNetwork_OnlyBasicNode.basicHosts[8].wlan[0].radio radioMode:vector ETV
attr interpolationmode sample-hold
attr source radioModeChanged
attr title "Radio mode, vector"
vector 9 UAVNetwork_OnlyBasicNode.basicHosts[9].wlan[0].radio radioMode:vector ETV
attr interpolationmode sample-hold
attr source radioModeChanged
attr title "Radio mode, vector"
vector 10 UAVNetwork_OnlyBasicNode.basicHosts[10].wlan[0].radio radioMode:vector ETV
attr interpolationmode sample-hold
attr source radioModeChanged
attr title "Radio mode, vector"
vector 11 UAVNetwork_OnlyBasicNode.basicHosts[11].wlan[0].radio radioMode:vector ETV
attr interpolationmode sample-hold
attr source radioModeChanged
attr title "Radio mode, vector"
vector 12 UAVNetwork_OnlyBasicNode.basicHosts[12].wlan[0].radio radioMode:vector ETV
attr interpolationmode sample-hold
attr source radioModeChanged
attr title "Radio mode, vector"
vector 13 UAVNetwork_OnlyBasicNode.basicHosts[13].wlan[0].radio radioMode:vector ETV
attr interpolationmode sample-hold
attr source radioModeChanged
attr title "Radio mode, vector"
vector 14 UAVNetwork_OnlyBasicNode.basicHosts[14].wlan[0].radio radioMode:vector ETV
attr interpolationmode sample-hold
attr source radioModeChanged
attr title "Radio mode, vector"
vector 15 UAVNetwork_OnlyBasicNode.basicHosts[15].wlan[0].radio radioMode:vector ETV
attr interpolationmode sample-hold
attr source radioModeChanged
attr title "Radio mode, vector"
vector 16 UAVNetwork_OnlyBasicNode.basicHosts[16].wlan[0].radio radioMode:vector ETV
attr interpolationmode sample-hold
attr source radioModeChanged
attr title "Radio mode, vector"
vector 17 UAVNetwork_OnlyBasicNode.basicHosts[17].wlan[0].radio radioMode:vector ETV
attr interpolationmode sample-hold
attr source radioModeChanged
attr title "Radio mode, vector"
vector 18 UAVNetwork_OnlyBasicNode.basicHosts[18].wlan[0].radio radioMode:vector ETV
attr interpolationmode sample-hold
attr source radioModeChanged
attr title "Radio mode, vector"
vector 19 UAVNetwork_OnlyBasicNode.basicHosts[19].wlan[0].radio radioMode:vector ETV
attr interpolationmode sample-hold
attr source radioModeChanged
attr title "Radio mode, vector"
vector 20 UAVNetwork_OnlyBasicNode.basicHosts[20].wlan[0].radio radioMode:vector ETV
attr interpolationmode sample-hold
attr source radioModeChanged
attr title "Radio mode, vector"
vector 21 UAVNetwork_OnlyBasicNode.basicHosts[21].wlan[0].radio radioMode:vector ETV
attr interpolationmode sample-hold
attr source radioModeChanged
attr title "Radio mode, vector"
vector 22 UAVNetwork_OnlyBasicNode.basicHosts[22].wlan[0].radio radioMode:vector ETV
attr interpolationmode sample-hold
attr source radioModeChanged
attr title "Radio mode, vector"
vector 23 UAVNetwork_OnlyBasicNode.basicHosts[23].wlan[0].radio radioMode:vector ETV
attr interpolationmode sample-hold
attr source radioModeChanged
attr title "Radio mode, vector"
vector 24 UAVNetwork_OnlyBasicNode.basicHosts[24].wlan[0].radio radioMode:vector ETV
attr interpolationmode sample-hold
attr source radioModeChanged
attr title "Radio mode, vector"
vector 25 UAVNetwork_OnlyBasicNode.basicHosts[25].wlan[0].radio radioMode:vector ETV
attr interpolationmode sample-hold
attr source radioModeChanged
attr title "Radio mode, vector"
vector 26 UAVNetwork_OnlyBasicNode.basicHosts[26].wlan[0].radio radioMode:vector ETV
attr interpolationmode sample-hold
attr source radioModeChanged
attr title "Radio mode, vector"
vector 27 UAVNetwork_OnlyBasicNode.basicHosts[27].wlan[0].radio radioMode:vector ETV
attr interpolationmode sample-hold
attr source radioModeChanged
attr title "Radio mode, vector"
vector 28 UAVNetwork_OnlyBasicNode.basicHosts[28].wlan[0].radio radioMode:vector ETV
attr interpolationmode sample-hold
attr source radioModeChanged
attr title "Radio mode, vector"
vector 29 UAVNetwork_OnlyBasicNode.basicHosts[29].wlan[0].radio radioMode:vector ETV
attr interpolationmode sample-hold
attr source radioModeChanged
attr title "Radio mode, vector"
vector 30 UAVNetwork_OnlyBasicNode.basicHosts[0].wlan[0].radio receptionState:vector ETV
attr interpolationmode sample-hold
attr source receptionStateChanged
attr title "Radio reception state, vector"
vector 31 UAVNetwork_OnlyBasicNode.basicHosts[1].wlan[0].radio receptionState:vector ETV
attr interpolationmode sample-hold
attr source receptionStateChanged
attr title "Radio reception state, vector"
vector 32 UAVNetwork_OnlyBasicNode.basicHosts[2].wlan[0].radio receptionState:vector ETV
attr interpolationmode sample-hold
attr source receptionStateChanged
attr title "Radio reception state, vector"
vector 33 UAVNetwork_OnlyBasicNode.basicHosts[3].wlan[0].radio receptionState:vector ETV
attr interpolationmode sample-hold
attr source receptionStateChanged
attr title "Radio reception state, vector"
vector 34 UAVNetwork_OnlyBasicNode.basicHosts[4].wlan[0].radio receptionState:vector ETV
attr interpolationmode sample-hold
attr source receptionStateChanged
attr title "Radio reception state, vector"
vector 35 UAVNetwork_OnlyBasicNode.basicHosts[5].wlan[0].radio receptionState:vector ETV
attr interpolationmode sample-hold
attr source receptionStateChanged
attr title "Radio reception state, vector"
vector 36 UAVNetwork_OnlyBasicNode.basicHosts[6].wlan[0].radio receptionState:vector ETV
attr interpolationmode sample-hold
attr source receptionStateChanged
attr title "Radio reception state, vector"
vector 37 UAVNetwork_OnlyBasicNode.basicHosts[7].wlan[0].radio receptionState:vector ETV
attr interpolationmode sample-hold
attr source receptionStateChanged
attr title "Radio reception state, vector"
vector 38 UAVNetwork_OnlyBasicNode.basicHosts[8].wlan[0].radio receptionState:vector ETV
attr interpolationmode sample-hold
attr source receptionStateChanged
attr title "Radio reception state, vector"
vector 39 UAVNetwork_OnlyBasicNode.basicHosts[9].wlan[0].radio receptionState:vector ETV
attr interpolationmode sample-hold
attr source receptionStateChanged
attr title "Radio reception state, vector"
vector 40 UAVNetwork_OnlyBasicNode.basicHosts[10].wlan[0].radio receptionState:vector ETV
attr interpolationmode sample-hold
attr source receptionStateChanged
attr title "Radio reception state, vector"
vector 41 UAVNetwork_OnlyBasicNode.basicHosts[11].wlan[0].radio receptionState:vector ETV
attr interpolationmode sample-hold
attr source receptionStateChanged
attr title "Radio reception state, vector"
vector 42 UAVNetwork_OnlyBasicNode.basicHosts[12].wlan[0].radio receptionState:vector ETV
attr interpolationmode sample-hold
attr source receptionStateChanged
attr title "Radio reception state, vector"
vector 43 UAVNetwork_OnlyBasicNode.basicHosts[13].wlan[0].radio receptionState:vector ETV
attr interpolationmode sample-hold
attr source receptionStateChanged
attr title "Radio reception state, vector"
vector 44 UAVNetwork_OnlyBasicNode.basicHosts[14].wlan[0].radio receptionState:vector ETV
attr interpolationmode sample-hold
attr source receptionStateChanged
attr title "Radio reception state, vector"
vector 45 UAVNetwork_OnlyBasicNode.basicHosts[15].wlan[0].radio receptionState:vector ETV
attr interpolationmode sample-hold
attr source receptionStateChanged
attr title "Radio reception state, vector"
vector 46 UAVNetwork_OnlyBasicNode.basicHosts[16].wlan[0].radio receptionState:vector ETV
attr interpolationmode sample-hold
attr source receptionStateChanged
attr title "Radio reception state, vector"
vector 47 UAVNetwork_OnlyBasicNode.basicHosts[17].wlan[0].radio receptionState:vector ETV
attr interpolationmode sample-hold
attr source receptionStateChanged
attr title "Radio reception state, vector"
vector 48 UAVNetwork_OnlyBasicNode.basicHosts[18].wlan[0].radio receptionState:vector ETV
attr interpolationmode sample-hold
attr source receptionStateChanged
attr title "Radio reception state, vector"
vector 49 UAVNetwork_OnlyBasicNode.basicHosts[19].wlan[0].radio receptionState:vector ETV
attr interpolationmode sample-hold
attr source receptionStateChanged
attr title "Radio reception state, vector"
vector 50 UAVNetwork_OnlyBasicNode.basicHosts[20].wlan[0].radio receptionState:vector ETV
attr interpolationmode sample-hold
attr source receptionStateChanged
attr title "Radio reception state, vector"
vector 51 UAVNetwork_OnlyBasicNode.basicHosts[21].wlan[0].radio receptionState:vector ETV
attr interpolationmode sample-hold
attr source receptionStateChanged
attr title "Radio reception state, vector"
vector 52 UAVNetwork_OnlyBasicNode.basicHosts[22].wlan[0].radio receptionState:vector ETV
attr interpolationmode sample-hold
attr source receptionStateChanged
attr title "Radio reception state, vector"
vector 53 UAVNetwork_OnlyBasicNode.basicHosts[23].wlan[0].radio receptionState:vector ETV
attr interpolationmode sample-hold
attr source receptionStateChanged
attr title "Radio reception state, vector"
vector 54 UAVNetwork_OnlyBasicNode.basicHosts[24].wlan[0].radio receptionState:vector ETV
attr interpolationmode sample-hold
attr source receptionStateChanged
attr title "Radio reception state, vector"
vector 55 UAVNetwork_OnlyBasicNode.basicHosts[25].wlan[0].radio receptionState:vector ETV
attr interpolationmode sample-hold
attr source receptionStateChanged
attr title "Radio reception state, vector"
vector 56 UAVNetwork_OnlyBasicNode.basicHosts[26].wlan[0].radio receptionState:vector ETV
attr interpolationmode sample-hold
attr source receptionStateChanged
attr title "Radio reception state, vector"
vector 57 UAVNetwork_OnlyBasicNode.basicHosts[27].wlan[0].radio receptionState:vector ETV
attr interpolationmode sample-hold
attr source receptionStateChanged
attr title "Radio reception state, vector"
vector 58 UAVNetwork_OnlyBasicNode.basicHosts[28].wlan[0].radio receptionState:vector ETV
attr interpolationmode sample-hold
attr source receptionStateChanged
attr title "Radio reception state, vector"
vector 59 UAVNetwork_OnlyBasicNode.basicHosts[29].wlan[0].radio receptionState:vector ETV
attr interpolationmode sample-hold
attr source receptionStateChanged
attr title "Radio reception state, vector"
vector 60 UAVNetwork_OnlyBasicNode.basicHosts[9].wlan[0].radio transmissionState:vector ETV
attr interpolationmode sample-hold
attr source transmissionStateChanged
attr title "Radio transmission state, vector"
vector 61 UAVNetwork_OnlyBasicNode.basicHosts[18].wlan[0].radio transmissionState:vector ETV
attr interpolationmode sample-hold
attr source transmissionStateChanged
attr title "Radio transmission state, vector"
vector 62 UAVNetwork_OnlyBasicNode.basicHosts[28].wlan[0].mac packetDropNotAddressedToUs:vector(packetBytes) ETV
attr interpolationmode none
attr source packetDropReasonIsNotAddressedToUs(packetDropped)
attr title "packet drop: not addressed to us, vector(packetBytes)"
vector 63 UAVNetwork_OnlyBasicNode.basicHosts[16].wlan[0].mac packetDropNotAddressedToUs:vector(packetBytes) ETV
attr interpolationmode none
attr source packetDropReasonIsNotAddressedToUs(packetDropped)
attr title "packet drop: not addressed to us, vector(packetBytes)"
vector 64 UAVNetwork_OnlyBasicNode.basicHosts[5].wlan[0].mac packetDropNotAddressedToUs:vector(packetBytes) ETV
attr interpolationmode none
attr source packetDropReasonIsNotAddressedToUs(packetDropped)
attr title "packet drop: not addressed to us, vector(packetBytes)"
vector 65 UAVNetwork_OnlyBasicNode.basicHosts[0].wlan[0].mac packetDropNotAddressedToUs:vector(packetBytes) ETV
attr interpolationmode none
attr source packetDropReasonIsNotAddressedToUs(packetDropped)
attr title "packet drop: not addressed to us, vector(packetBytes)"
vector 66 UAVNetwork_OnlyBasicNode.basicHosts[1].wlan[0].mac packetDropNotAddressedToUs:vector(packetBytes) ETV
attr interpolationmode none
attr source packetDropReasonIsNotAddressedToUs(packetDropped)
attr title "packet drop: not addressed to us, vector(packetBytes)"
vector 67 UAVNetwork_OnlyBasicNode.basicHosts[26].wlan[0].mac packetDropNotAddressedToUs:vector(packetBytes) ETV
attr interpolationmode none
attr source packetDropReasonIsNotAddressedToUs(packetDropped)
attr title "packet drop: not addressed to us, vector(packetBytes)"
vector 68 UAVNetwork_OnlyBasicNode.basicHosts[7].wlan[0].mac packetDropNotAddressedToUs:vector(packetBytes) ETV
attr interpolationmode none
attr source packetDropReasonIsNotAddressedToUs(packetDropped)
attr title "packet drop: not addressed to us, vector(packetBytes)"
vector 69 UAVNetwork_OnlyBasicNode.basicHosts[8].wlan[0].mac packetDropIncorrectlyReceived:vector(packetBytes) ETV
attr interpolationmode none
attr source packetDropReasonIsIncorrectlyReceived(packetDropped)
attr title "packet drop: incorrectly received, vector(packetBytes)"
vector 70 UAVNetwork_OnlyBasicNode.basicHosts[13].wlan[0].mac packetDropIncorrectlyReceived:vector(packetBytes) ETV
attr interpolationmode none
attr source packetDropReasonIsIncorrectlyReceived(packetDropped)
attr title "packet drop: incorrectly received, vector(packetBytes)"
vector 71 UAVNetwork_OnlyBasicNode.basicHosts[10].wlan[0].mac packetDropIncorrectlyReceived:vector(packetBytes) ETV
attr interpolationmode none
attr source packetDropReasonIsIncorrectlyReceived(packetDropped)
attr title "packet drop: incorrectly received, vector(packetBytes)"
vector 72 UAVNetwork_OnlyBasicNode.basicHosts[29].wlan[0].mac packetDropIncorrectlyReceived:vector(packetBytes) ETV
attr interpolationmode none
attr source packetDropReasonIsIncorrectlyReceived(packetDropped)
attr title "packet drop: incorrectly received, vector(packetBytes)"
vector 73 UAVNetwork_OnlyBasicNode.basicHosts[20].wlan[0].mac packetDropIncorrectlyReceived:vector(packetBytes) ETV
attr interpolationmode none
attr source packetDropReasonIsIncorrectlyReceived(packetDropped)
attr title "packet drop: incorrectly received, vector(packetBytes)"
vector 74 UAVNetwork_OnlyBasicNode.basicHosts[2].wlan[0].mac packetDropIncorrectlyReceived:vector(packetBytes) ETV
attr interpolationmode none
attr source packetDropReasonIsIncorrectlyReceived(packetDropped)
attr title "packet drop: incorrectly received, vector(packetBytes)"
vector 75 UAVNetwork_OnlyBasicNode.basicHosts[27].wlan[0].mac packetDropIncorrectlyReceived:vector(packetBytes) ETV
attr interpolationmode none
attr source packetDropReasonIsIncorrectlyReceived(packetDropped)
attr title "packet drop: incorrectly received, vector(packetBytes)"
vector 76 UAVNetwork_OnlyBasicNode.basicHosts[15].wlan[0].mac packetDropNotAddressedToUs:vector(packetBytes) ETV
attr interpolationmode none
attr source packetDropReasonIsNotAddressedToUs(packetDropped)
attr title "packet drop: not addressed to us, vector(packetBytes)"
vector 77 UAVNetwork_OnlyBasicNode.basicHosts[11].wlan[0].mac packetDropIncorrectlyReceived:vector(packetBytes) ETV
attr interpolationmode none
attr source packetDropReasonIsIncorrectlyReceived(packetDropped)
attr title "packet drop: incorrectly received, vector(packetBytes)"
vector 78 UAVNetwork_OnlyBasicNode.basicHosts[14].wlan[0].mac packetDropIncorrectlyReceived:vector(packetBytes) ETV
attr interpolationmode none
attr source packetDropReasonIsIncorrectlyReceived(packetDropped)
attr title "packet drop: incorrectly received, vector(packetBytes)"
vector 79 UAVNetwork_OnlyBasicNode.basicHosts[25].wlan[0].mac packetDropIncorrectlyReceived:vector(packetBytes) ETV
attr interpolationmode none
attr source packetDropReasonIsIncorrectlyReceived(packetDropped)
attr title "packet drop: incorrectly received, vector(packetBytes)"
vector 80 UAVNetwork_OnlyBasicNode.basicHosts[24].wlan[0].mac packetDropIncorrectlyReceived:vector(packetBytes) ETV
attr interpolationmode none
attr source packetDropReasonIsIncorrectlyReceived(packetDropped)
attr title "packet drop: incorrectly received, vector(packetBytes)"
vector 81 UAVNetwork_OnlyBasicNode.basicHosts[22].wlan[0].mac packetDropIncorrectlyReceived:vector(packetBytes) ETV
attr interpolationmode none
attr source packetDropReasonIsIncorrectlyReceived(packetDropped)
attr title "packet drop: incorrectly received, vector(packetBytes)"
vector 82 UAVNetwork_OnlyBasicNode.basicHosts[3].wlan[0].mac packetDropIncorrectlyReceived:vector(packetBytes) ETV
attr interpolationmode none
attr source packetDropReasonIsIncorrectlyReceived(packetDropped)
attr title "packet drop: incorrectly received, vector(packetBytes)"
vector 83 UAVNetwork_OnlyBasicNode.basicHosts[17].wlan[0].mac packetDropIncorrectlyReceived:vector(packetBytes) ETV
attr interpolationmode none
attr source packetDropReasonIsIncorrectlyReceived(packetDropped)
attr title "packet drop: incorrectly received, vector(packetBytes)"
vector 84 UAVNetwork_OnlyBasicNode.basicHosts[28].wlan[0].radio transmissionState:vector ETV
attr interpolationmode sample-hold
attr source transmissionStateChanged
attr title "Radio transmission state, vector"
vector 85 UAVNetwork_OnlyBasicNode.basicHosts[4].wlan[0].mac packetDropNotAddressedToUs:vector(packetBytes) ETV
attr interpolationmode none
attr source packetDropReasonIsNotAddressedToUs(packetDropped)
attr title "packet drop: not addressed to us, vector(packetBytes)"
vector 86 UAVNetwork_OnlyBasicNode.basicHosts[6].wlan[0].mac packetDropNotAddressedToUs:vector(packetBytes) ETV
attr interpolationmode none
attr source packetDropReasonIsNotAddressedToUs(packetDropped)
attr title "packet drop: not addressed to us, vector(packetBytes)"
vector 87 UAVNetwork_OnlyBasicNode.basicHosts[19].wlan[0].mac packetDropNotAddressedToUs:vector(packetBytes) ETV
attr interpolationmode none
attr source packetDropReasonIsNotAddressedToUs(packetDropped)
attr title "packet drop: not addressed to us, vector(packetBytes)"
vector 88 UAVNetwork_OnlyBasicNode.basicHosts[21].wlan[0].mac packetDropIncorrectlyReceived:vector(packetBytes) ETV
attr interpolationmode none
attr source packetDropReasonIsIncorrectlyReceived(packetDropped)
attr title "packet drop: incorrectly received, vector(packetBytes)"
vector 89 UAVNetwork_OnlyBasicNode.basicHosts[19].wlan[0].radio transmissionState:vector ETV
attr interpolationmode sample-hold
attr source transmissionStateChanged
attr title "Radio transmission state, vector"
vector 90 UAVNetwork_OnlyBasicNode.basicHosts[9].wlan[0].mac packetDropNotAddressedToUs:vector(packetBytes) ETV
attr interpolationmode none
attr source packetDropReasonIsNotAddressedToUs(packetDropped)
attr title "packet drop: not addressed to us, vector(packetBytes)"
vector 91 UAVNetwork_OnlyBasicNode.basicHosts[29].wlan[0].mac packetDropNotAddressedToUs:vector(packetBytes) ETV
attr interpolationmode none
attr source packetDropReasonIsNotAddressedToUs(packetDropped)
attr title "packet drop: not addressed to us, vector(packetBytes)"
vector 92 UAVNetwork_OnlyBasicNode.basicHosts[15].wlan[0].mac packetDropIncorrectlyReceived:vector(packetBytes) ETV
attr interpolationmode none
attr source packetDropReasonIsIncorrectlyReceived(packetDropped)
attr title "packet drop: incorrectly received, vector(packetBytes)"
vector 93 UAVNetwork_OnlyBasicNode.basicHosts[5].wlan[0].mac packetDropIncorrectlyReceived:vector(packetBytes) ETV
attr interpolationmode none
attr source packetDropReasonIsIncorrectlyReceived(packetDropped)
attr title "packet drop: incorrectly received, vector(packetBytes)"
vector 94 UAVNetwork_OnlyBasicNode.basicHosts[15].wlan[0].radio transmissionState:vector ETV
attr interpolationmode sample-hold
attr source transmissionStateChanged
attr title "Radio transmission state, vector"
vector 95 UAVNetwork_OnlyBasicNode.basicHosts[17].wlan[0].mac packetDropNotAddressedToUs:vector(packetBytes) ETV
attr interpolationmode none
attr source packetDropReasonIsNotAddressedToUs(packetDropped)
attr title "packet drop: not addressed to us, vector(packetBytes)"
vector 96 UAVNetwork_OnlyBasicNode.basicHosts[3].wlan[0].mac packetDropNotAddressedToUs:vector(packetBytes) ETV
attr interpolationmode none
attr source packetDropReasonIsNotAddressedToUs(packetDropped)
attr title "packet drop: not addressed to us, vector(packetBytes)"
vector 97 UAVNetwork_OnlyBasicNode.basicHosts[21].wlan[0].mac packetDropNotAddressedToUs:vector(packetBytes) ETV
attr interpolationmode none
attr source packetDropReasonIsNotAddressedToUs(packetDropped)
attr title "packet drop: not addressed to us, vector(packetBytes)"
vector 98 UAVNetwork_OnlyBasicNode.basicHosts[18].wlan[0].mac packetDropIncorrectlyReceived:vector(packetBytes) ETV
attr interpolationmode none
attr source packetDropReasonIsIncorrectlyReceived(packetDropped)
attr title "packet drop: incorrectly received, vector(packetBytes)"
vector 99 UAVNetwork_OnlyBasicNode.basicHosts[23].wlan[0].mac packetDropNotAddressedToUs:vector(packetBytes) ETV
attr interpolationmode none
attr source packetDropReasonIsNotAddressedToUs(packetDropped)
attr title "packet drop: not addressed to us, vector(packetBytes)"
vector 100 UAVNetwork_OnlyBasicNode.basicHosts[12].wlan[0].mac packetDropIncorrectlyReceived:vector(packetBytes) ETV
attr interpolationmode none
attr source packetDropReasonIsIncorrectlyReceived(packetDropped)
attr title "packet drop: incorrectly received, vector(packetBytes)"
vector 101 UAVNetwork_OnlyBasicNode.basicHosts[8].wlan[0].radio transmissionState:vector ETV
attr interpolationmode sample-hold
attr source transmissionStateChanged
attr title "Radio transmission state, vector"
vector 102 UAVNetwork_OnlyBasicNode.basicHosts[14].wlan[0].mac packetDropNotAddressedToUs:vector(packetBytes) ETV
attr interpolationmode none
attr source packetDropReasonIsNotAddressedToUs(packetDropped)
attr title "packet drop: not addressed to us, vector(packetBytes)"
vector 103 UAVNetwork_OnlyBasicNode.basicHosts[16].wlan[0].mac packetDropIncorrectlyReceived:vector(packetBytes) ETV
attr interpolationmode none
attr source packetDropReasonIsIncorrectlyReceived(packetDropped)
attr title "packet drop: incorrectly received, vector(packetBytes)"
vector 104 UAVNetwork_OnlyBasicNode.basicHosts[1].wlan[0].mac packetDropIncorrectlyReceived:vector(packetBytes) ETV
attr interpolationmode none
attr source packetDropReasonIsIncorrectlyReceived(packetDropped)
attr title "packet drop: incorrectly received, vector(packetBytes)"
vector 105 UAVNetwork_OnlyBasicNode.basicHosts[9].wlan[0].mac packetDropIncorrectlyReceived:vector(packetBytes) ETV
attr interpolationmode none
attr source packetDropReasonIsIncorrectlyReceived(packetDropped)
attr title "packet drop: incorrectly received, vector(packetBytes)"
vector 106 UAVNetwork_OnlyBasicNode.basicHosts[0].wlan[0].radio transmissionState:vector ETV
attr interpolationmode sample-hold
attr source transmissionStateChanged
attr title "Radio transmission state, vector"
vector 107 UAVNetwork_OnlyBasicNode.basicHosts[12].wlan[0].mac packetDropNotAddressedToUs:vector(packetBytes) ETV
attr interpolationmode none
attr source packetDropReasonIsNotAddressedToUs(packetDropped)
attr title "packet drop: not addressed to us, vector(packetBytes)"
vector 108 UAVNetwork_OnlyBasicNode.basicHosts[23].wlan[0].mac packetDropIncorrectlyReceived:vector(packetBytes) ETV
attr interpolationmode none
attr source packetDropReasonIsIncorrectlyReceived(packetDropped)
attr title "packet drop: incorrectly received, vector(packetBytes)"
vector 109 UAVNetwork_OnlyBasicNode.basicHosts[26].wlan[0].radio transmissionState:vector ETV
attr interpolationmode sample-hold
attr source transmissionStateChanged
attr title "Radio transmission state, vector"
vector 110 UAVNetwork_OnlyBasicNode.basicHosts[13].wlan[0].mac packetDropNotAddressedToUs:vector(packetBytes) ETV
attr interpolationmode none
attr source packetDropReasonIsNotAddressedToUs(packetDropped)
attr title "packet drop: not addressed to us, vector(packetBytes)"
vector 111 UAVNetwork_OnlyBasicNode.basicHosts[10].wlan[0].mac packetDropNotAddressedToUs:vector(packetBytes) ETV
attr interpolationmode none
attr source packetDropReasonIsNotAddressedToUs(packetDropped)
attr title "packet drop: not addressed to us, vector(packetBytes)"
vector 112 UAVNetwork_OnlyBasicNode.basicHosts[25].wlan[0].mac packetDropNotAddressedToUs:vector(packetBytes) ETV
attr interpolationmode none
attr source packetDropReasonIsNotAddressedToUs(packetDropped)
attr title "packet drop: not addressed to us, vector(packetBytes)"
vector 113 UAVNetwork_OnlyBasicNode.basicHosts[4].wlan[0].mac packetDropIncorrectlyReceived:vector(packetBytes) ETV
attr interpolationmode none
attr source packetDropReasonIsIncorrectlyReceived(packetDropped)
attr title "packet drop: incorrectly received, vector(packetBytes)"
vector 114 UAVNetwork_OnlyBasicNode.basicHosts[19].wlan[0].mac packetDropIncorrectlyReceived:vector(packetBytes) ETV
attr interpolationmode none
attr source packetDropReasonIsIncorrectlyReceived(packetDropped)
attr title "packet drop: incorrectly received, vector(packetBytes)"
vector 115 UAVNetwork_OnlyBasicNode.basicHosts[3].wlan[0].radio transmissionState:vector ETV
attr interpolationmode sample-hold
attr source transmissionStateChanged
attr title "Radio transmission state, vector"
vector 116 UAVNetwork_OnlyBasicNode.basicHosts[8].wlan[0].mac packetDropNotAddressedToUs:vector(packetBytes) ETV
attr interpolationmode none
attr source packetDropReasonIsNotAddressedToUs(packetDropped)
attr title "packet drop: not addressed to us, vector(packetBytes)"
vector 117 UAVNetwork_OnlyBasicNode.basicHosts[7].wlan[0].radio transmissionState:vector ETV
attr interpolationmode sample-hold
attr source transmissionStateChanged
attr title "Radio transmission state, vector"
vector 118 UAVNetwork_OnlyBasicNode.basicHosts[11].wlan[0].mac packetDropNotAddressedToUs:vector(packetBytes) ETV
attr interpolationmode none
attr source packetDropReasonIsNotAddressedToUs(packetDropped)
attr title "packet drop: not addressed to us, vector(packetBytes)"
vector 119 UAVNetwork_OnlyBasicNode.basicHosts[27].wlan[0].mac packetDropNotAddressedToUs:vector(packetBytes) ETV
attr interpolationmode none
attr source packetDropReasonIsNotAddressedToUs(packetDropped)
attr title "packet drop: not addressed to us, vector(packetBytes)"
vector 120 UAVNetwork_OnlyBasicNode.basicHosts[0].wlan[0].mac packetDropIncorrectlyReceived:vector(packetBytes) ETV
attr interpolationmode none
attr source packetDropReasonIsIncorrectlyReceived(packetDropped)
attr title "packet drop: incorrectly received, vector(packetBytes)"
vector 121 UAVNetwork_OnlyBasicNode.basicHosts[28].wlan[0].mac packetDropIncorrectlyReceived:vector(packetBytes) ETV
attr interpolationmode none
attr source packetDropReasonIsIncorrectlyReceived(packetDropped)
attr title "packet drop: incorrectly received, vector(packetBytes)"
vector 122 UAVNetwork_OnlyBasicNode.basicHosts[22].wlan[0].radio transmissionState:vector ETV
attr interpolationmode sample-hold
attr source transmissionStateChanged
attr title "Radio transmission state, vector"
vector 123 UAVNetwork_OnlyBasicNode.basicHosts[6].wlan[0].mac packetDropIncorrectlyReceived:vector(packetBytes) ETV
attr interpolationmode none
attr source packetDropReasonIsIncorrectlyReceived(packetDropped)
attr title "packet drop: incorrectly received, vector(packetBytes)"
vector 124 UAVNetwork_OnlyBasicNode.basicHosts[7].wlan[0].mac packetDropIncorrectlyReceived:vector(packetBytes) ETV
attr interpolationmode none
attr source packetDropReasonIsIncorrectlyReceived(packetDropped)
attr title "packet drop: incorrectly received, vector(packetBytes)"
vector 125 UAVNetwork_OnlyBasicNode.basicHosts[6].wlan[0].radio transmissionState:vector ETV
attr interpolationmode sample-hold
attr source transmissionStateChanged
attr title "Radio transmission state, vector"
vector 126 UAVNetwork_OnlyBasicNode.basicHosts[16].wlan[0].radio transmissionState:vector ETV
attr interpolationmode sample-hold
attr source transmissionStateChanged
attr title "Radio transmission state, vector"
vector 127 UAVNetwork_OnlyBasicNode.basicHosts[18].wlan[0].mac packetDropNotAddressedToUs:vector(packetBytes) ETV
attr interpolationmode none
attr source packetDropReasonIsNotAddressedToUs(packetDropped)
attr title "packet drop: not addressed to us, vector(packetBytes)"
vector 128 UAVNetwork_OnlyBasicNode.basicHosts[24].wlan[0].mac packetDropNotAddressedToUs:vector(packetBytes) ETV
attr interpolationmode none
attr source packetDropReasonIsNotAddressedToUs(packetDropped)
attr title "packet drop: not addressed to us, vector(packetBytes)"
vector 129 UAVNetwork_OnlyBasicNode.basicHosts[20].wlan[0].mac packetDropNotAddressedToUs:vector(packetBytes) ETV
attr interpolationmode none
attr source packetDropReasonIsNotAddressedToUs(packetDropped)
attr title "packet drop: not addressed to us, vector(packetBytes)"
vector 130 UAVNetwork_OnlyBasicNode.basicHosts[2].wlan[0].mac packetDropNotAddressedToUs:vector(packetBytes) ETV
attr interpolationmode none
attr source packetDropReasonIsNotAddressedToUs(packetDropped)
attr title "packet drop: not addressed to us, vector(packetBytes)"
vector 131 UAVNetwork_OnlyBasicNode.basicHosts[17].wlan[0].radio transmissionState:vector ETV
attr interpolationmode sample-hold
attr source transmissionStateChanged
attr title "Radio transmission state, vector"
vector 132 UAVNetwork_OnlyBasicNode.basicHosts[22].wlan[0].mac packetDropNotAddressedToUs:vector(packetBytes) ETV
attr interpolationmode none
attr source packetDropReasonIsNotAddressedToUs(packetDropped)
attr title "packet drop: not addressed to us, vector(packetBytes)"
vector 133 UAVNetwork_OnlyBasicNode.basicHosts[24].wlan[0].radio transmissionState:vector ETV
attr interpolationmode sample-hold
attr source transmissionStateChanged
attr title "Radio transmission state, vector"
vector 134 UAVNetwork_OnlyBasicNode.basicHosts[21].wlan[0].radio transmissionState:vector ETV
attr interpolationmode sample-hold
attr source transmissionStateChanged
attr title "Radio transmission state, vector"
vector 135 UAVNetwork_OnlyBasicNode.basicHosts[14].wlan[0].radio transmissionState:vector ETV
attr interpolationmode sample-hold
attr source transmissionStateChanged
attr title "Radio transmission state, vector"
vector 136 UAVNetwork_OnlyBasicNode.basicHosts[29].wlan[0].radio transmissionState:vector ETV
attr interpolationmode sample-hold
attr source transmissionStateChanged
attr title "Radio transmission state, vector"
vector 137 UAVNetwork_OnlyBasicNode.basicHosts[12].wlan[0].radio transmissionState:vector ETV
attr interpolationmode sample-hold
attr source transmissionStateChanged
attr title "Radio transmission state, vector"
vector 138 UAVNetwork_OnlyBasicNode.basicHosts[27].wlan[0].radio transmissionState:vector ETV
attr interpolationmode sample-hold
attr source transmissionStateChanged
attr title "Radio transmission state, vector"
vector 139 UAVNetwork_OnlyBasicNode.basicHosts[26].wlan[0].mac packetDropIncorrectlyReceived:vector(packetBytes) ETV
attr interpolationmode none
attr source packetDropReasonIsIncorrectlyReceived(packetDropped)
attr title "packet drop: incorrectly received, vector(packetBytes)"
vector 140 UAVNetwork_OnlyBasicNode.basicHosts[25].wlan[0].radio transmissionState:vector ETV
attr interpolationmode sample-hold
attr source transmissionStateChanged
attr title "Radio transmission state, vector"
vector 141 UAVNetwork_OnlyBasicNode.basicHosts[4].wlan[0].radio transmissionState:vector ETV
attr interpolationmode sample-hold
attr source transmissionStateChanged
attr title "Radio transmission state, vector"
vector 142 UAVNetwork_OnlyBasicNode.basicHosts[13].wlan[0].radio transmissionState:vector ETV
attr interpolationmode sample-hold
attr source transmissionStateChanged
attr title "Radio transmission state, vector"
vector 143 UAVNetwork_OnlyBasicNode.basicHosts[11].wlan[0].radio transmissionState:vector ETV
attr interpolationmode sample-hold
attr source transmissionStateChanged
attr title "Radio transmission state, vector"
vector 144 UAVNetwork_OnlyBasicNode.basicHosts[1].wlan[0].radio transmissionState:vector ETV
attr interpolationmode sample-hold
attr source transmissionStateChanged
attr title "Radio transmission state, vector"
vector 145 UAVNetwork_OnlyBasicNode.basicHosts[5].wlan[0].radio transmissionState:vector ETV
attr interpolationmode sample-hold
attr source transmissionStateChanged
attr title "Radio transmission state, vector"
vector 146 UAVNetwork_OnlyBasicNode.basicHosts[23].wlan[0].radio transmissionState:vector ETV
attr interpolationmode sample-hold
attr source transmissionStateChanged
attr title "Radio transmission state, vector"
vector 147 UAVNetwork_OnlyBasicNode.basicHosts[26].wlan[0].mac packetDropRetryLimitReached:vector(packetBytes) ETV
attr interpolationmode none
attr source packetDropReasonIsRetryLimitReached(packetDropped)
attr title "packet drop: retry limit reached, vector(packetBytes)"
vector 148 UAVNetwork_OnlyBasicNode.basicHosts[2].wlan[0].radio transmissionState:vector ETV
attr interpolationmode sample-hold
attr source transmissionStateChanged
attr title "Radio transmission state, vector"
vector 149 UAVNetwork_OnlyBasicNode.basicHosts[20].wlan[0].radio transmissionState:vector ETV
attr interpolationmode sample-hold
attr source transmissionStateChanged
attr title "Radio transmission state, vector"
vector 150 UAVNetwork_OnlyBasicNode.basicHosts[10].wlan[0].radio transmissionState:vector ETV
attr interpolationmode sample-hold
attr source transmissionStateChanged
attr title "Radio transmission state, vector"
vector 151 UAVNetwork_OnlyBasicNode.basicHosts[28].wlan[0].mac packetDropRetryLimitReached:vector(packetBytes) ETV
attr interpolationmode none
attr source packetDropReasonIsRetryLimitReached(packetDropped)
attr title "packet drop: retry limit reached, vector(packetBytes)"
vector 152 UAVNetwork_OnlyBasicNode.basicHosts[8].wlan[0].mac packetDropRetryLimitReached:vector(packetBytes) ETV
attr interpolationmode none
attr source packetDropReasonIsRetryLimitReached(packetDropped)
attr title "packet drop: retry limit reached, vector(packetBytes)"
vector 153 UAVNetwork_OnlyBasicNode.basicHosts[7].wlan[0].mac packetDropRetryLimitReached:vector(packetBytes) ETV
attr interpolationmode none
attr source packetDropReasonIsRetryLimitReached(packetDropped)
attr title "packet drop: retry limit reached, vector(packetBytes)"
vector 154 UAVNetwork_OnlyBasicNode.basicHosts[9].wlan[0].mac packetDropRetryLimitReached:vector(packetBytes) ETV
attr interpolationmode none
attr source packetDropReasonIsRetryLimitReached(packetDropped)
attr title "packet drop: retry limit reached, vector(packetBytes)"
vector 155 UAVNetwork_OnlyBasicNode.basicHosts[15].wlan[0].mac packetDropRetryLimitReached:vector(packetBytes) ETV
attr interpolationmode none
attr source packetDropReasonIsRetryLimitReached(packetDropped)
attr title "packet drop: retry limit reached, vector(packetBytes)"
vector 156 UAVNetwork_OnlyBasicNode.basicHosts[21].wlan[0].mac packetDropRetryLimitReached:vector(packetBytes) ETV
attr interpolationmode none
attr source packetDropReasonIsRetryLimitReached(packetDropped)
attr title "packet drop: retry limit reached, vector(packetBytes)"
vector 157 UAVNetwork_OnlyBasicNode.basicHosts[18].wlan[0].mac packetDropRetryLimitReached:vector(packetBytes) ETV
attr interpolationmode none
attr source packetDropReasonIsRetryLimitReached(packetDropped)
attr title "packet drop: retry limit reached, vector(packetBytes)"
vector 158 UAVNetwork_OnlyBasicNode.basicHosts[14].wlan[0].mac packetDropRetryLimitReached:vector(packetBytes) ETV
attr interpolationmode none
attr source packetDropReasonIsRetryLimitReached(packetDropped)
attr title "packet drop: retry limit reached, vector(packetBytes)"
vector 159 UAVNetwork_OnlyBasicNode.basicHosts[19].wlan[0].mac packetDropRetryLimitReached:vector(packetBytes) ETV
attr interpolationmode none
attr source packetDropReasonIsRetryLimitReached(packetDropped)
attr title "packet drop: retry limit reached, vector(packetBytes)"
vector 160 UAVNetwork_OnlyBasicNode.basicHosts[6].wlan[0].mac packetDropRetryLimitReached:vector(packetBytes) ETV
attr interpolationmode none
attr source packetDropReasonIsRetryLimitReached(packetDropped)
attr title "packet drop: retry limit reached, vector(packetBytes)"
vector 161 UAVNetwork_OnlyBasicNode.basicHosts[29].wlan[0].mac packetDropRetryLimitReached:vector(packetBytes) ETV
attr interpolationmode none
attr source packetDropReasonIsRetryLimitReached(packetDropped)
attr title "packet drop: retry limit reached, vector(packetBytes)"
vector 162 UAVNetwork_OnlyBasicNode.basicHosts[16].wlan[0].mac packetDropRetryLimitReached:vector(packetBytes) ETV
attr interpolationmode none
attr source packetDropReasonIsRetryLimitReached(packetDropped)
attr title "packet drop: retry limit reached, vector(packetBytes)"
vector 163 UAVNetwork_OnlyBasicNode.basicHosts[17].wlan[0].mac packetDropRetryLimitReached:vector(packetBytes) ETV
attr interpolationmode none
attr source packetDropReasonIsRetryLimitReached(packetDropped)
attr title "packet drop: retry limit reached, vector(packetBytes)"
vector 164 UAVNetwork_OnlyBasicNode.basicHosts[23].wlan[0].mac packetDropRetryLimitReached:vector(packetBytes) ETV
attr interpolationmode none
attr source packetDropReasonIsRetryLimitReached(packetDropped)
attr title "packet drop: retry limit reached, vector(packetBytes)"
vector 165 UAVNetwork_OnlyBasicNode.basicHosts[12].wlan[0].mac packetDropRetryLimitReached:vector(packetBytes) ETV
attr interpolationmode none
attr source packetDropReasonIsRetryLimitReached(packetDropped)
attr title "packet drop: retry limit reached, vector(packetBytes)"
vector 166 UAVNetwork_OnlyBasicNode.basicHosts[0].wlan[0].mac packetDropRetryLimitReached:vector(packetBytes) ETV
attr interpolationmode none
attr source packetDropReasonIsRetryLimitReached(packetDropped)
attr title "packet drop: retry limit reached, vector(packetBytes)"
vector 167 UAVNetwork_OnlyBasicNode.basicHosts[4].wlan[0].mac packetDropRetryLimitReached:vector(packetBytes) ETV
attr interpolationmode none
attr source packetDropReasonIsRetryLimitReached(packetDropped)
attr title "packet drop: retry limit reached, vector(packetBytes)"
vector 168 UAVNetwork_OnlyBasicNode.basicHosts[27].wlan[0].mac packetDropRetryLimitReached:vector(packetBytes) ETV
attr interpolationmode none
attr source packetDropReasonIsRetryLimitReached(packetDropped)
attr title "packet drop: retry limit reached, vector(packetBytes)"
vector 169 UAVNetwork_OnlyBasicNode.basicHosts[11].wlan[0].mac packetDropRetryLimitReached:vector(packetBytes) ETV
attr interpolationmode none
attr source packetDropReasonIsRetryLimitReached(packetDropped)
attr title "packet drop: retry limit reached, vector(packetBytes)"
vector 170 UAVNetwork_OnlyBasicNode.basicHosts[13].wlan[0].mac packetDropRetryLimitReached:vector(packetBytes) ETV
attr interpolationmode none
attr source packetDropReasonIsRetryLimitReached(packetDropped)
attr title "packet drop: retry limit reached, vector(packetBytes)"
vector 171 UAVNetwork_OnlyBasicNode.basicHosts[10].wlan[0].mac packetDropRetryLimitReached:vector(packetBytes) ETV
attr interpolationmode none
attr source packetDropReasonIsRetryLimitReached(packetDropped)
attr title "packet drop: retry limit reached, vector(packetBytes)"
vector 172 UAVNetwork_OnlyBasicNode.basicHosts[2].wlan[0].mac packetDropRetryLimitReached:vector(packetBytes) ETV
attr interpolationmode none
attr source packetDropReasonIsRetryLimitReached(packetDropped)
attr title "packet drop: retry limit reached, vector(packetBytes)"
vector 173 UAVNetwork_OnlyBasicNode.basicHosts[20].wlan[0].mac packetDropRetryLimitReached:vector(packetBytes) ETV
attr interpolationmode none
attr source packetDropReasonIsRetryLimitReached(packetDropped)
attr title "packet drop: retry limit reached, vector(packetBytes)"
vector 174 UAVNetwork_OnlyBasicNode.basicHosts[22].wlan[0].mac packetDropRetryLimitReached:vector(packetBytes) ETV
attr interpolationmode none
attr source packetDropReasonIsRetryLimitReached(packetDropped)
attr title "packet drop: retry limit reached, vector(packetBytes)"
vector 175 UAVNetwork_OnlyBasicNode.basicHosts[25].wlan[0].mac packetDropRetryLimitReached:vector(packetBytes) ETV
attr interpolationmode none
attr source packetDropReasonIsRetryLimitReached(packetDropped)
attr title "packet drop: retry limit reached, vector(packetBytes)"
vector 176 UAVNetwork_OnlyBasicNode.basicHosts[24].wlan[0].mac packetDropRetryLimitReached:vector(packetBytes) ETV
attr interpolationmode none
attr source packetDropReasonIsRetryLimitReached(packetDropped)
attr title "packet drop: retry limit reached, vector(packetBytes)"
vector 177 UAVNetwork_OnlyBasicNode.basicHosts[3].wlan[0].mac packetDropRetryLimitReached:vector(packetBytes) ETV
attr interpolationmode none
attr source packetDropReasonIsRetryLimitReached(packetDropped)
attr title "packet drop: retry limit reached, vector(packetBytes)"
vector 178 UAVNetwork_OnlyBasicNode.basicHosts[1].wlan[0].mac packetDropRetryLimitReached:vector(packetBytes) ETV
attr interpolationmode none
attr source packetDropReasonIsRetryLimitReached(packetDropped)
attr title "packet drop: retry limit reached, vector(packetBytes)"
vector 179 UAVNetwork_OnlyBasicNode.basicHosts[5].wlan[0].mac packetDropRetryLimitReached:vector(packetBytes) ETV
attr interpolationmode none
attr source packetDropReasonIsRetryLimitReached(packetDropped)
attr title "packet drop: retry limit reached, vector(packetBytes)"
vector 180 UAVNetwork_OnlyBasicNode.basicHosts[5].app[0] pingTxSeq:vector ETV
attr interpolationmode none
attr title "ping tx seq, vector"
vector 181 UAVNetwork_OnlyBasicNode.basicHosts[0].app[0] pingTxSeq:vector ETV
attr interpolationmode none
attr title "ping tx seq, vector"
vector 182 UAVNetwork_OnlyBasicNode.basicHosts[9].app[0] pingTxSeq:vector ETV
attr interpolationmode none
attr title "ping tx seq, vector"
vector 183 UAVNetwork_OnlyBasicNode.basicHosts[26].app[0] pingTxSeq:vector ETV
attr interpolationmode none
attr title "ping tx seq, vector"
vector 184 UAVNetwork_OnlyBasicNode.basicHosts[26].lo[0].lo rcvdPkFromHl:vector(packetBytes) ETV
attr interpolationmode none
attr source packetReceivedFromUpper
attr title "packets received from higher layer, vector(packetBytes)"
vector 185 UAVNetwork_OnlyBasicNode.basicHosts[26].lo[0].lo passedUpPk:vector(packetBytes) ETV
attr interpolationmode none
attr source packetSentToUpper
attr title "packets passed to higher layer, vector(packetBytes)"
vector 186 UAVNetwork_OnlyBasicNode.basicHosts[26].app[0] pingRxSeq:vector ETV
attr interpolationmode none
attr title "ping rx seq, vector"
vector 187 UAVNetwork_OnlyBasicNode.basicHosts[5].app[0] pingRxSeq:vector ETV
attr interpolationmode none
attr title "ping rx seq, vector"
vector 188 UAVNetwork_OnlyBasicNode.basicHosts[5].app[0] rtt:vector ETV
attr interpolationmode none
attr title "ping round-trip time, vector"
attr unit s
vector 189 UAVNetwork_OnlyBasicNode.basicHosts[0].app[0] pingRxSeq:vector ETV
attr interpolationmode none
attr title "ping rx seq, vector"
vector 190 UAVNetwork_OnlyBasicNode.basicHosts[0].app[0] rtt:vector ETV
attr interpolationmode none
attr title "ping round-trip time, vector"
attr unit s
vector 191 UAVNetwork_OnlyBasicNode.basicHosts[9].app[0] pingRxSeq:vector ETV
attr interpolationmode none
attr title "ping rx seq, vector"
vector 192 UAVNetwork_OnlyBasicNode.basicHosts[9].app[0] rtt:vector ETV
attr interpolationmode none
attr title "ping round-trip time, vector"
attr unit s
vector 193 UAVNetwork_OnlyBasicNode.basicHosts[16].app[0] pingTxSeq:vector ETV
attr interpolationmode none
attr title "ping tx seq, vector"
vector 194 UAVNetwork_OnlyBasicNode.basicHosts[16].app[0] pingRxSeq:vector ETV
attr interpolationmode none
attr title "ping rx seq, vector"
vector 195 UAVNetwork_OnlyBasicNode.basicHosts[16].app[0] rtt:vector ETV
attr interpolationmode none
attr title "ping round-trip time, vector"
attr unit s
vector 196 UAVNetwork_OnlyBasicNode.basicHosts[6].app[0] pingTxSeq:vector ETV
attr interpolationmode none
attr title "ping tx seq, vector"
vector 197 UAVNetwork_OnlyBasicNode.basicHosts[6].app[0] pingRxSeq:vector ETV
attr interpolationmode none
attr title "ping rx seq, vector"
vector 198 UAVNetwork_OnlyBasicNode.basicHosts[6].app[0] rtt:vector ETV
attr interpolationmode none
attr title "ping round-trip time, vector"
attr unit s
vector 199 UAVNetwork_OnlyBasicNode.basicHosts[13].app[0] pingTxSeq:vector ETV
attr interpolationmode none
attr title "ping tx seq, vector"
vector 200 UAVNetwork_OnlyBasicNode.basicHosts[15].app[0] pingTxSeq:vector ETV
attr interpolationmode none
attr title "ping tx seq, vector"
vector 201 UAVNetwork_OnlyBasicNode.basicHosts[13].app[0] pingRxSeq:vector ETV
attr interpolationmode none
attr title "ping rx seq, vector"
vector 202 UAVNetwork_OnlyBasicNode.basicHosts[13].app[0] rtt:vector ETV
attr interpolationmode none
attr title "ping round-trip time, vector"
attr unit s
vector 203 UAVNetwork_OnlyBasicNode.basicHosts[8].app[0] pingTxSeq:vector ETV
attr interpolationmode none
attr title "ping tx seq, vector"
vector 204 UAVNetwork_OnlyBasicNode.basicHosts[15].app[0] pingRxSeq:vector ETV
attr interpolationmode none
attr title "ping rx seq, vector"
vector 205 UAVNetwork_OnlyBasicNode.basicHosts[15].app[0] rtt:vector ETV
attr interpolationmode none
attr title "ping round-trip time, vector"
attr unit s
vector 206 UAVNetwork_OnlyBasicNode.basicHosts[8].app[0] pingRxSeq:vector ETV
attr interpolationmode none
attr title "ping rx seq, vector"
vector 207 UAVNetwork_OnlyBasicNode.basicHosts[8].app[0] rtt:vector ETV
attr interpolationmode none
attr title "ping round-trip time, vector"
attr unit s
vector 208 UAVNetwork_OnlyBasicNode.basicHosts[20].app[0] pingTxSeq:vector ETV
attr interpolationmode none
attr title "ping tx seq, vector"
vector 209 UAVNetwork_OnlyBasicNode.basicHosts[8].app[0] numOutOfOrderArrivals:vector ETV
attr interpolationmode none
attr title "ping out-of-order arrivals, vector"
vector 210 UAVNetwork_OnlyBasicNode.basicHosts[8].app[0] numLost:vector ETV
attr interpolationmode none
attr title "pings lost, vector"
vector 211 UAVNetwork_OnlyBasicNode.basicHosts[20].app[0] pingRxSeq:vector ETV
attr interpolationmode none
attr title "ping rx seq, vector"
vector 212 UAVNetwork_OnlyBasicNode.basicHosts[20].app[0] rtt:vector ETV
attr interpolationmode none
attr title "ping round-trip time, vector"
attr unit s
vector 213 UAVNetwork_OnlyBasicNode.basicHosts[10].app[0] pingTxSeq:vector ETV
attr interpolationmode none
attr title "ping tx seq, vector"
vector 214 UAVNetwork_OnlyBasicNode.basicHosts[10].app[0] pingRxSeq:vector ETV
attr interpolationmode none
attr title "ping rx seq, vector"
vector 215 UAVNetwork_OnlyBasicNode.basicHosts[10].app[0] rtt:vector ETV
attr interpolationmode none
attr title "ping round-trip time, vector"
attr unit s
vector 216 UAVNetwork_OnlyBasicNode.basicHosts[14].app[0] pingTxSeq:vector ETV
attr interpolationmode none
attr title "ping tx seq, vector"
vector 217 UAVNetwork_OnlyBasicNode.basicHosts[14].app[0] pingRxSeq:vector ETV
attr interpolationmode none
attr title "ping rx seq, vector"
vector 218 UAVNetwork_OnlyBasicNode.basicHosts[14].app[0] rtt:vector ETV
attr interpolationmode none
attr title "ping round-trip time, vector"
attr unit s
vector 219 UAVNetwork_OnlyBasicNode.basicHosts[21].app[0] pingTxSeq:vector ETV
attr interpolationmode none
attr title "ping tx seq, vector"
vector 220 UAVNetwork_OnlyBasicNode.basicHosts[7].app[0] pingTxSeq:vector ETV
attr interpolationmode none
attr title "ping tx seq, vector"
vector 221 UAVNetwork_OnlyBasicNode.basicHosts[21].app[0] pingRxSeq:vector ETV
attr interpolationmode none
attr title "ping rx seq, vector"
vector 222 UAVNetwork_OnlyBasicNode.basicHosts[21].app[0] rtt:vector ETV
attr interpolationmode none
attr title "ping round-trip time, vector"
attr unit s
vector 223 UAVNetwork_OnlyBasicNode.basicHosts[7].app[0] pingRxSeq:vector ETV
attr interpolationmode none
attr title "ping rx seq, vector"
vector 224 UAVNetwork_OnlyBasicNode.basicHosts[7].app[0] rtt:vector ETV
attr interpolationmode none
attr title "ping round-trip time, vector"
attr unit s
vector 225 UAVNetwork_OnlyBasicNode.basicHosts[18].app[0] pingTxSeq:vector ETV
attr interpolationmode none
attr title "ping tx seq, vector"
vector 226 UAVNetwork_OnlyBasicNode.basicHosts[1].app[0] pingTxSeq:vector ETV
attr interpolationmode none
attr title "ping tx seq, vector"
vector 227 UAVNetwork_OnlyBasicNode.basicHosts[1].app[0] pingRxSeq:vector ETV
attr interpolationmode none
attr title "ping rx seq, vector"
vector 228 UAVNetwork_OnlyBasicNode.basicHosts[1].app[0] rtt:vector ETV
attr interpolationmode none
attr title "ping round-trip time, vector"
attr unit s
vector 229 UAVNetwork_OnlyBasicNode.basicHosts[18].app[0] pingRxSeq:vector ETV
attr interpolationmode none
attr title "ping rx seq, vector"
vector 230 UAVNetwork_OnlyBasicNode.basicHosts[18].app[0] rtt:vector ETV
attr interpolationmode none
attr title "ping round-trip time, vector"
attr unit s
vector 231 UAVNetwork_OnlyBasicNode.basicHosts[23].app[0] pingTxSeq:vector ETV
attr interpolationmode none
attr title "ping tx seq, vector"
vector 232 UAVNetwork_OnlyBasicNode.basicHosts[23].app[0] pingRxSeq:vector ETV
attr interpolationmode none
attr title "ping rx seq, vector"
vector 233 UAVNetwork_OnlyBasicNode.basicHosts[23].app[0] rtt:vector ETV
attr interpolationmode none
attr title "ping round-trip time, vector"
attr unit s
vector 234 UAVNetwork_OnlyBasicNode.basicHosts[17].app[0] pingTxSeq:vector ETV
attr interpolationmode none
attr title "ping tx seq, vector"
vector 235 UAVNetwork_OnlyBasicNode.basicHosts[12].app[0] pingTxSeq:vector ETV
attr interpolationmode none
attr title "ping tx seq, vector"
vector 236 UAVNetwork_OnlyBasicNode.basicHosts[17].app[0] pingRxSeq:vector ETV
attr interpolationmode none
attr title "ping rx seq, vector"
vector 237 UAVNetwork_OnlyBasicNode.basicHosts[17].app[0] rtt:vector ETV
attr interpolationmode none
attr title "ping round-trip time, vector"
attr unit s
vector 238 UAVNetwork_OnlyBasicNode.basicHosts[17].app[0] numOutOfOrderArrivals:vector ETV
attr interpolationmode none
attr title "ping out-of-order arrivals, vector"
vector 239 UAVNetwork_OnlyBasicNode.basicHosts[17].app[0] numLost:vector ETV
attr interpolationmode none
attr title "pings lost, vector"
vector 240 UAVNetwork_OnlyBasicNode.basicHosts[12].app[0] pingRxSeq:vector ETV
attr interpolationmode none
attr title "ping rx seq, vector"
vector 241 UAVNetwork_OnlyBasicNode.basicHosts[12].app[0] rtt:vector ETV
attr interpolationmode none
attr title "ping round-trip time, vector"
attr unit s
vector 242 UAVNetwork_OnlyBasicNode.basicHosts[19].app[0] pingTxSeq:vector ETV
attr interpolationmode none
attr title "ping tx seq, vector"
vector 243 UAVNetwork_OnlyBasicNode.basicHosts[4].app[0] pingTxSeq:vector ETV
attr interpolationmode none
attr title "ping tx seq, vector"
vector 244 UAVNetwork_OnlyBasicNode.basicHosts[3].app[0] pingTxSeq:vector ETV
attr interpolationmode none
attr title "ping tx seq, vector"
vector 245 UAVNetwork_OnlyBasicNode.basicHosts[4].app[0] pingRxSeq:vector ETV
attr interpolationmode none
attr title "ping rx seq, vector"
vector 246 UAVNetwork_OnlyBasicNode.basicHosts[4].app[0] rtt:vector ETV
attr interpolationmode none
attr title "ping round-trip time, vector"
attr unit s
vector 247 UAVNetwork_OnlyBasicNode.basicHosts[2].app[0] pingTxSeq:vector ETV
attr interpolationmode none
attr title "ping tx seq, vector"
vector 248 UAVNetwork_OnlyBasicNode.basicHosts[2].app[0] pingRxSeq:vector ETV
attr interpolationmode none
attr title "ping rx seq, vector"
vector 249 UAVNetwork_OnlyBasicNode.basicHosts[2].app[0] rtt:vector ETV
attr interpolationmode none
attr title "ping round-trip time, vector"
attr unit s
vector 250 UAVNetwork_OnlyBasicNode.basicHosts[19].app[0] pingRxSeq:vector ETV
attr interpolationmode none
attr title "ping rx seq, vector"
vector 251 UAVNetwork_OnlyBasicNode.basicHosts[19].app[0] rtt:vector ETV
attr interpolationmode none
attr title "ping round-trip time, vector"
attr unit s
vector 252 UAVNetwork_OnlyBasicNode.basicHosts[3].app[0] pingRxSeq:vector ETV
attr interpolationmode none
attr title "ping rx seq, vector"
vector 253 UAVNetwork_OnlyBasicNode.basicHosts[3].app[0] rtt:vector ETV
attr interpolationmode none
attr title "ping round-trip time, vector"
attr unit s
vector 254 UAVNetwork_OnlyBasicNode.basicHosts[28].app[0] pingTxSeq:vector ETV
attr interpolationmode none
attr title "ping tx seq, vector"
vector 255 UAVNetwork_OnlyBasicNode.basicHosts[29].app[0] pingTxSeq:vector ETV
attr interpolationmode none
attr title "ping tx seq, vector"
vector 256 UAVNetwork_OnlyBasicNode.basicHosts[28].app[0] pingRxSeq:vector ETV
attr interpolationmode none
attr title "ping rx seq, vector"
vector 257 UAVNetwork_OnlyBasicNode.basicHosts[28].app[0] rtt:vector ETV
attr interpolationmode none
attr title "ping round-trip time, vector"
attr unit s
vector 258 UAVNetwork_OnlyBasicNode.basicHosts[29].app[0] pingRxSeq:vector ETV
attr interpolationmode none
attr title "ping rx seq, vector"
vector 259 UAVNetwork_OnlyBasicNode.basicHosts[29].app[0] rtt:vector ETV
attr interpolationmode none
attr title "ping round-trip time, vector"
attr unit s
vector 260 UAVNetwork_OnlyBasicNode.basicHosts[25].app[0] pingTxSeq:vector ETV
attr interpolationmode none
attr title "ping tx seq, vector"
vector 261 UAVNetwork_OnlyBasicNode.basicHosts[25].app[0] pingRxSeq:vector ETV
attr interpolationmode none
attr title "ping rx seq, vector"
vector 262 UAVNetwork_OnlyBasicNode.basicHosts[25].app[0] rtt:vector ETV
attr interpolationmode none
attr title "ping round-trip time, vector"
attr unit s
vector 263 UAVNetwork_OnlyBasicNode.basicHosts[11].app[0] pingTxSeq:vector ETV
attr interpolationmode none
attr title "ping tx seq, vector"
vector 264 UAVNetwork_OnlyBasicNode.basicHosts[22].app[0] pingTxSeq:vector ETV
attr interpolationmode none
attr title "ping tx seq, vector"
vector 265 UAVNetwork_OnlyBasicNode.basicHosts[22].app[0] pingRxSeq:vector ETV
attr interpolationmode none
attr title "ping rx seq, vector"
vector 266 UAVNetwork_OnlyBasicNode.basicHosts[22].app[0] rtt:vector ETV
attr interpolationmode none
attr title "ping round-trip time, vector"
attr unit s
vector 267 UAVNetwork_OnlyBasicNode.basicHosts[11].app[0] pingRxSeq:vector ETV
attr interpolationmode none
attr title "ping rx seq, vector"
vector 268 UAVNetwork_OnlyBasicNode.basicHosts[11].app[0] rtt:vector ETV
attr interpolationmode none
attr title "ping round-trip time, vector"
attr unit s
vector 269 UAVNetwork_OnlyBasicNode.basicHosts[24].app[0] pingTxSeq:vector ETV
attr interpolationmode none
attr title "ping tx seq, vector"
vector 270 UAVNetwork_OnlyBasicNode.basicHosts[24].app[0] pingRxSeq:vector ETV
attr interpolationmode none
attr title "ping rx seq, vector"
vector 271 UAVNetwork_OnlyBasicNode.basicHosts[24].app[0] rtt:vector ETV
attr interpolationmode none
attr title "ping round-trip time, vector"
attr unit s
vector 272 UAVNetwork_OnlyBasicNode.basicHosts[27].app[0] pingTxSeq:vector ETV
attr interpolationmode none
attr title "ping tx seq, vector"
vector 273 UAVNetwork_OnlyBasicNode.basicHosts[27].lo[0].lo rcvdPkFromHl:vector(packetBytes) ETV
attr interpolationmode none
attr source packetReceivedFromUpper
attr title "packets received from higher layer, vector(packetBytes)"
vector 274 UAVNetwork_OnlyBasicNode.basicHosts[27].lo[0].lo passedUpPk:vector(packetBytes) ETV
attr interpolationmode none
attr source packetSentToUpper
attr title "packets passed to higher layer, vector(packetBytes)"
vector 275 UAVNetwork_OnlyBasicNode.basicHosts[27].app[0] pingRxSeq:vector ETV
attr interpolationmode none
attr title "ping rx seq, vector"
vector 276 UAVNetwork_OnlyBasicNode.basicHosts[0].lo[0].lo rcvdPkFromHl:vector(packetBytes) ETV
attr interpolationmode none
attr source packetReceivedFromUpper
attr title "packets received from higher layer, vector(packetBytes)"
vector 277 UAVNetwork_OnlyBasicNode.basicHosts[0].lo[0].lo passedUpPk:vector(packetBytes) ETV
attr interpolationmode none
attr source packetSentToUpper
attr title "packets passed to higher layer, vector(packetBytes)"
vector 278 UAVNetwork_OnlyBasicNode.basicHosts[15].app[0] numOutOfOrderArrivals:vector ETV
attr interpolationmode none
attr title "ping out-of-order arrivals, vector"
vector 279 UAVNetwork_OnlyBasicNode.basicHosts[15].app[0] numLost:vector ETV
attr interpolationmode none
attr title "pings lost, vector"
vector 280 UAVNetwork_OnlyBasicNode.basicHosts[18].lo[0].lo rcvdPkFromHl:vector(packetBytes) ETV
attr interpolationmode none
attr source packetReceivedFromUpper
attr title "packets received from higher layer, vector(packetBytes)"
vector 281 UAVNetwork_OnlyBasicNode.basicHosts[18].lo[0].lo passedUpPk:vector(packetBytes) ETV
attr interpolationmode none
attr source packetSentToUpper
attr title "packets passed to higher layer, vector(packetBytes)"
vector 282 UAVNetwork_OnlyBasicNode.basicHosts[6].app[0] numOutOfOrderArrivals:vector ETV
attr interpolationmode none
attr title "ping out-of-order arrivals, vector"
vector 283 UAVNetwork_OnlyBasicNode.basicHosts[6].app[0] numLost:vector ETV
attr interpolationmode none
attr title "pings lost, vector"
vector 284 UAVNetwork_OnlyBasicNode.basicHosts[27].app[0] rtt:vector ETV
attr interpolationmode none
attr title "ping round-trip time, vector"
attr unit s
vector 285 UAVNetwork_OnlyBasicNode.basicHosts[26].app[0] rtt:vector ETV
attr interpolationmode none
attr title "ping round-trip time, vector"
attr unit s
vector 286 UAVNetwork_OnlyBasicNode.basicHosts[26].app[0] numOutOfOrderArrivals:vector ETV
attr interpolationmode none
attr title "ping out-of-order arrivals, vector"
vector 287 UAVNetwork_OnlyBasicNode.basicHosts[26].app[0] numLost:vector ETV
attr interpolationmode none
attr title "pings lost, vector"
vector 288 UAVNetwork_OnlyBasicNode.basicHosts[7].app[0] numLost:vector ETV
attr interpolationmode none
attr title "pings lost, vector"
vector 289 UAVNetwork_OnlyBasicNode.basicHosts[16].app[0] numOutOfOrderArrivals:vector ETV
attr interpolationmode none
attr title "ping out-of-order arrivals, vector"
vector 290 UAVNetwork_OnlyBasicNode.basicHosts[16].app[0] numLost:vector ETV
attr interpolationmode none
attr title "pings lost, vector"
vector 291 UAVNetwork_OnlyBasicNode.basicHosts[7].app[0] numOutOfOrderArrivals:vector ETV
attr interpolationmode none
attr title "ping out-of-order arrivals, vector"
vector 292 UAVNetwork_OnlyBasicNode.basicHosts[25].app[0] numOutOfOrderArrivals:vector ETV
attr interpolationmode none
attr title "ping out-of-order arrivals, vector"
vector 293 UAVNetwork_OnlyBasicNode.basicHosts[25].app[0] numLost:vector ETV
attr interpolationmode none
attr title "pings lost, vector"
vector 294 UAVNetwork_OnlyBasicNode.basicHosts[1].lo[0].lo rcvdPkFromHl:vector(packetBytes) ETV
attr interpolationmode none
attr source packetReceivedFromUpper
attr title "packets received from higher layer, vector(packetBytes)"
vector 295 UAVNetwork_OnlyBasicNode.basicHosts[1].lo[0].lo passedUpPk:vector(packetBytes) ETV
attr interpolationmode none
attr source packetSentToUpper
attr title "packets passed to higher layer, vector(packetBytes)"
vector 296 UAVNetwork_OnlyBasicNode.basicHosts[2].lo[0].lo rcvdPkFromHl:vector(packetBytes) ETV
attr interpolationmode none
attr source packetReceivedFromUpper
attr title "packets received from higher layer, vector(packetBytes)"
vector 297 UAVNetwork_OnlyBasicNode.basicHosts[2].lo[0].lo passedUpPk:vector(packetBytes) ETV
attr interpolationmode none
attr source packetSentToUpper
attr title "packets passed to higher layer, vector(packetBytes)"
vector 298 UAVNetwork_OnlyBasicNode.basicHosts[11].app[0] numOutOfOrderArrivals:vector ETV
attr interpolationmode none
attr title "ping out-of-order arrivals, vector"
vector 299 UAVNetwork_OnlyBasicNode.basicHosts[11].app[0] numLost:vector ETV
attr interpolationmode none
attr title "pings lost, vector"
vector 300 UAVNetwork_OnlyBasicNode.basicHosts[2].app[0] numOutOfOrderArrivals:vector ETV
attr interpolationmode none
attr title "ping out-of-order arrivals, vector"
vector 301 UAVNetwork_OnlyBasicNode.basicHosts[2].app[0] numLost:vector ETV
attr interpolationmode none
attr title "pings lost, vector"
vector 302 UAVNetwork_OnlyBasicNode.basicHosts[3].lo[0].lo rcvdPkFromHl:vector(packetBytes) ETV
attr interpolationmode none
attr source packetReceivedFromUpper
attr title "packets received from higher layer, vector(packetBytes)"
vector 303 UAVNetwork_OnlyBasicNode.basicHosts[3].lo[0].lo passedUpPk:vector(packetBytes) ETV
attr interpolationmode none
attr source packetSentToUpper
attr title "packets passed to higher layer, vector(packetBytes)"
vector 304 UAVNetwork_OnlyBasicNode.basicHosts[3].app[0] numLost:vector ETV
attr interpolationmode none
attr title "pings lost, vector"
vector 305 UAVNetwork_OnlyBasicNode.basicHosts[19].app[0] numOutOfOrderArrivals:vector ETV
attr interpolationmode none
attr title "ping out-of-order arrivals, vector"
vector 306 UAVNetwork_OnlyBasicNode.basicHosts[19].app[0] numLost:vector ETV
attr interpolationmode none
attr title "pings lost, vector"
vector 307 UAVNetwork_OnlyBasicNode.basicHosts[9].app[0] numLost:vector ETV
attr interpolationmode none
attr title "pings lost, vector"
vector 308 UAVNetwork_OnlyBasicNode.basicHosts[23].app[0] numOutOfOrderArrivals:vector ETV
attr interpolationmode none
attr title "ping out-of-order arrivals, vector"
vector 309 UAVNetwork_OnlyBasicNode.basicHosts[23].app[0] numLost:vector ETV
attr interpolationmode none
attr title "pings lost, vector"
vector 310 UAVNetwork_OnlyBasicNode.basicHosts[12].app[0] numOutOfOrderArrivals:vector ETV
attr interpolationmode none
attr title "ping out-of-order arrivals, vector"
vector 311 UAVNetwork_OnlyBasicNode.basicHosts[12].app[0] numLost:vector ETV
attr interpolationmode none
attr title "pings lost, vector"
vector 312 UAVNetwork_OnlyBasicNode.basicHosts[29].app[0] numOutOfOrderArrivals:vector ETV
attr interpolationmode none
attr title "ping out-of-order arrivals, vector"
vector 313 UAVNetwork_OnlyBasicNode.basicHosts[29].app[0] numLost:vector ETV
attr interpolationmode none
attr title "pings lost, vector"
vector 314 UAVNetwork_OnlyBasicNode.basicHosts[22].app[0] numOutOfOrderArrivals:vector ETV
attr interpolationmode none
attr title "ping out-of-order arrivals, vector"
vector 315 UAVNetwork_OnlyBasicNode.basicHosts[22].app[0] numLost:vector ETV
attr interpolationmode none
attr title "pings lost, vector"
vector 316 UAVNetwork_OnlyBasicNode.basicHosts[4].lo[0].lo rcvdPkFromHl:vector(packetBytes) ETV
attr interpolationmode none
attr source packetReceivedFromUpper
attr title "packets received from higher layer, vector(packetBytes)"
vector 317 UAVNetwork_OnlyBasicNode.basicHosts[4].lo[0].lo passedUpPk:vector(packetBytes) ETV
attr interpolationmode none
attr source packetSentToUpper
attr title "packets passed to higher layer, vector(packetBytes)"
vector 318 UAVNetwork_OnlyBasicNode.basicHosts[24].lo[0].lo rcvdPkFromHl:vector(packetBytes) ETV
attr interpolationmode none
attr source packetReceivedFromUpper
attr title "packets received from higher layer, vector(packetBytes)"
vector 319 UAVNetwork_OnlyBasicNode.basicHosts[24].lo[0].lo passedUpPk:vector(packetBytes) ETV
attr interpolationmode none
attr source packetSentToUpper
attr title "packets passed to higher layer, vector(packetBytes)"
vector 320 UAVNetwork_OnlyBasicNode.basicHosts[5].lo[0].lo rcvdPkFromHl:vector(packetBytes) ETV
attr interpolationmode none
attr source packetReceivedFromUpper
attr title "packets received from higher layer, vector(packetBytes)"
vector 321 UAVNetwork_OnlyBasicNode.basicHosts[5].lo[0].lo passedUpPk:vector(packetBytes) ETV
attr interpolationmode none
attr source packetSentToUpper
attr title "packets passed to higher layer, vector(packetBytes)"
vector 322 UAVNetwork_OnlyBasicNode.basicHosts[6].lo[0].lo rcvdPkFromHl:vector(packetBytes) ETV
attr interpolationmode none
attr source packetReceivedFromUpper
attr title "packets received from higher layer, vector(packetBytes)"
vector 323 UAVNetwork_OnlyBasicNode.basicHosts[6].lo[0].lo passedUpPk:vector(packetBytes) ETV
attr interpolationmode none
attr source packetSentToUpper
attr title "packets passed to higher layer, vector(packetBytes)"
vector 324 UAVNetwork_OnlyBasicNode.basicHosts[14].app[0] numLost:vector ETV
attr interpolationmode none
attr title "pings lost, vector"
vector 325 UAVNetwork_OnlyBasicNode.basicHosts[1].app[0] numLost:vector ETV
attr interpolationmode none
attr title "pings lost, vector"
vector 326 UAVNetwork_OnlyBasicNode.basicHosts[1].app[0] numOutOfOrderArrivals:vector ETV
attr interpolationmode none
attr title "ping out-of-order arrivals, vector"
vector 327 UAVNetwork_OnlyBasicNode.basicHosts[10].app[0] numOutOfOrderArrivals:vector ETV
attr interpolationmode none
attr title "ping out-of-order arrivals, vector"
vector 328 UAVNetwork_OnlyBasicNode.basicHosts[10].app[0] numLost:vector ETV
attr interpolationmode none
attr title "pings lost, vector"
vector 329 UAVNetwork_OnlyBasicNode.basicHosts[21].app[0] numLost:vector ETV
attr interpolationmode none
attr title "pings lost, vector"
vector 330 UAVNetwork_OnlyBasicNode.basicHosts[0].app[0] numLost:vector ETV
attr interpolationmode none
attr title "pings lost, vector"
vector 331 UAVNetwork_OnlyBasicNode.basicHosts[3].app[0] numOutOfOrderArrivals:vector ETV
attr interpolationmode none
attr title "ping out-of-order arrivals, vector"
vector 332 UAVNetwork_OnlyBasicNode.basicHosts[14].app[0] numOutOfOrderArrivals:vector ETV
attr interpolationmode none
attr title "ping out-of-order arrivals, vector"
vector 333 UAVNetwork_OnlyBasicNode.basicHosts[11].lo[0].lo rcvdPkFromHl:vector(packetBytes) ETV
attr interpolationmode none
attr source packetReceivedFromUpper
attr title "packets received from higher layer, vector(packetBytes)"
vector 334 UAVNetwork_OnlyBasicNode.basicHosts[11].lo[0].lo passedUpPk:vector(packetBytes) ETV
attr interpolationmode none
attr source packetSentToUpper
attr title "packets passed to higher layer, vector(packetBytes)"
vector 335 UAVNetwork_OnlyBasicNode.basicHosts[24].app[0] numLost:vector ETV
attr interpolationmode none
attr title "pings lost, vector"
vector 336 UAVNetwork_OnlyBasicNode.basicHosts[20].app[0] numLost:vector ETV
attr interpolationmode none
attr title "pings lost, vector"
vector 337 UAVNetwork_OnlyBasicNode.basicHosts[18].app[0] numLost:vector ETV
attr interpolationmode none
attr title "pings lost, vector"
vector 338 UAVNetwork_OnlyBasicNode.basicHosts[9].app[0] numOutOfOrderArrivals:vector ETV
attr interpolationmode none
attr title "ping out-of-order arrivals, vector"
vector 339 UAVNetwork_OnlyBasicNode.basicHosts[21].app[0] numOutOfOrderArrivals:vector ETV
attr interpolationmode none
attr title "ping out-of-order arrivals, vector"
vector 340 UAVNetwork_OnlyBasicNode.basicHosts[4].app[0] numLost:vector ETV
attr interpolationmode none
attr title "pings lost, vector"
vector 341 UAVNetwork_OnlyBasicNode.basicHosts[4].app[0] numOutOfOrderArrivals:vector ETV
attr interpolationmode none
attr title "ping out-of-order arrivals, vector"
vector 342 UAVNetwork_OnlyBasicNode.basicHosts[28].app[0] numOutOfOrderArrivals:vector ETV
attr interpolationmode none
attr title "ping out-of-order arrivals, vector"
vector 343 UAVNetwork_OnlyBasicNode.basicHosts[28].app[0] numLost:vector ETV
attr interpolationmode none
attr title "pings lost, vector"
vector 344 UAVNetwork_OnlyBasicNode.basicHosts[18].app[0] numOutOfOrderArrivals:vector ETV
attr interpolationmode none
attr title "ping out-of-order arrivals, vector"
vector 345 UAVNetwork_OnlyBasicNode.basicHosts[9].lo[0].lo rcvdPkFromHl:vector(packetBytes) ETV
attr interpolationmode none
attr source packetReceivedFromUpper
attr title "packets received from higher layer, vector(packetBytes)"
vector 346 UAVNetwork_OnlyBasicNode.basicHosts[9].lo[0].lo passedUpPk:vector(packetBytes) ETV
attr interpolationmode none
attr source packetSentToUpper
attr title "packets passed to higher layer, vector(packetBytes)"
vector 347 UAVNetwork_OnlyBasicNode.basicHosts[0].app[0] numOutOfOrderArrivals:vector ETV
attr interpolationmode none
attr title "ping out-of-order arrivals, vector"
vector 348 UAVNetwork_OnlyBasicNode.basicHosts[13].lo[0].lo rcvdPkFromHl:vector(packetBytes) ETV
attr interpolationmode none
attr source packetReceivedFromUpper
attr title "packets received from higher layer, vector(packetBytes)"
vector 349 UAVNetwork_OnlyBasicNode.basicHosts[13].lo[0].lo passedUpPk:vector(packetBytes) ETV
attr interpolationmode none
attr source packetSentToUpper
attr title "packets passed to higher layer, vector(packetBytes)"
vector 350 UAVNetwork_OnlyBasicNode.basicHosts[8].lo[0].lo rcvdPkFromHl:vector(packetBytes) ETV
attr interpolationmode none
attr source packetReceivedFromUpper
attr title "packets received from higher layer, vector(packetBytes)"
vector 351 UAVNetwork_OnlyBasicNode.basicHosts[8].lo[0].lo passedUpPk:vector(packetBytes) ETV
attr interpolationmode none
attr source packetSentToUpper
attr title "packets passed to higher layer, vector(packetBytes)"
vector 352 UAVNetwork_OnlyBasicNode.basicHosts[7].lo[0].lo rcvdPkFromHl:vector(packetBytes) ETV
attr interpolationmode none
attr source packetReceivedFromUpper
attr title "packets received from higher layer, vector(packetBytes)"
vector 353 UAVNetwork_OnlyBasicNode.basicHosts[7].lo[0].lo passedUpPk:vector(packetBytes) ETV
attr interpolationmode none
attr source packetSentToUpper
attr title "packets passed to higher layer, vector(packetBytes)"
0	76889 18021 0 785790 0 23.106539856378 669 0 3 1667 4333
1	94910 17112 0 778494 0 23.022607254207 631 0 3 1572 4086
2	112022 15255 0 778418 0 23.022586999844 561 0 3 1397 3631
3	127277 16623 0 785183 0 23.099254298434 607 0 3 1512 3930
4	143900 17719 0 782558 0 23.057920296093 647 0 3 1612 4190
5	161619 23425 0 785988 0 23.113593973544 849 0 3 2117 5503
6	185044 17993 0 785315 0 23.099987058079 657 0 3 1637 4255
7	203037 18689 0 779132 0 23.026989971931 681 0 3 1697 4411
8	221726 17715 0 780897 0 23.049317539722 643 0 3 1602 4164
9	239441 18915 0 779036 0 23.025909601175 691 0 3 1722 4476
10	258356 12870 0 778824 0 23.024803656646 453 0 3 1127 2929
11	271226 14954 0 786075 0 23.120649090233 523 0 3 1302 3384
12	286180 17746 0 782389 0 23.056761483163 621 0 3 1547 4021
13	303926 15058 0 784391 0 23.087838693504 531 0 3 1322 3436
14	318984 12098 0 777709 0 23.019167502033 427 0 3 1062 2760
15	331082 12386 0 777591 0 23.018502248433 439 0 3 1092 2838
16	343468 16140 0 784481 0 23.088004258193 569 0 3 1417 3683
17	359608 12420 0 781748 0 23.053169991298 439 0 3 1092 2838
18	372028 17735 0 784842 0 23.097729089648 627 0 3 1562 4060
19	389763 14763 0 785024 0 23.098581659389 519 0 3 1292 3358
20	404526 9316 0 781919 0 23.054000431831 331 0 3 822 2136
21	413842 12279 0 781426 0 23.051537522123 433 0 3 1077 2799
22	426121 13451 0 778575 0 23.023312495712 475 0 3 1182 3072
23	439572 11570 0 782820 0 23.059567513192 407 0 3 1012 2630
24	451142 23752 0 775940 0 22.953673550248 833 0 3 2077 5399
25	474894 12322 0 778693 0 23.024018218864 435 0 3 1082 2812
26	487216 12951 0 784649 0 23.09142345334 459 0 3 1142 2968
27	500167 22860 0 777844 0 23.019832640195 813 0 3 2027 5269
28	523027 12596 0 784566 0 23.091258645749 449 0 3 1117 2903
29	535623 11715 0 773263 0 22.704479478657 413 0 3 1027 2669
30	547338 354964 0 786016 0 23.113596089815 12500 0 3 23310 55206
31	902302 342606 0 786054 0 23.120088842142 12078 0 3 23090 56098
32	1244908 409782 0 786065 0 23.120089644901 14395 0 3 27995 68253
33	1654690 357481 0 786076 0 23.120649610808 12563 0 3 23448 55414
34	2012171 372476 0 786056 0 23.12008907069 13059 0 3 25040 60680
35	2384647 384985 0 786069 0 23.120090442798 13537 0 3 25427 60831
36	2769632 354344 0 786086 0 23.120650359751 12463 0 3 23221 54949
37	3123976 389205 0 786064 0 23.120089626258 13646 0 3 25938 62280
38	3513181 272953 0 785993 0 23.113594750752 9635 0 3 17399 40383
39	3786134 400471 0 786061 0 23.120089397043 14063 0 3 27009 65431
40	4186605 410225 0 786068 0 23.12009042102 14420 0 3 28030 68010
41	4596830 359122 0 786075 0 23.120649090233 12598 0 3 23937 57323
42	4955952 372750 0 786055 0 23.120088909107 13101 0 3 24507 57991
43	5328702 406671 0 786057 0 23.12008915055 14277 0 3 27952 68514
44	5735373 374177 0 786060 0 23.120089386411 13163 0 3 25344 61136
45	6109550 399164 0 786063 0 23.120089447814 14020 0 3 27146 65666
46	6508714 371384 0 785989 0 23.113594473873 13061 0 3 24709 58965
[...]
99	37747268 36829 1577100 1950210 42.739025755809 52.400123993634 1170 68 104 105228 9824976
100	37784097 10628 1578360 1948422 42.954929588034 52.388265024406 332 17 104 22879 1748135
101	37794725 19552 1580336 1936397 42.963924830625 52.330604197593 632 0 2 632 948
102	37814277 46714 1577327 1950205 42.878381590021 52.400123370313 1436 68 104 130372 12268592
103	37860991 6568 1584306 1950595 43.013724881234 52.401627727669 205 17 104 14132 1078984
104	37867559 6280 1577580 1950065 42.879728273596 52.399098305391 196 17 104 13976 1078768
105	37873839 10975 1578585 1950112 42.955830022942 52.399203095988 343 17 104 22804 1714388
106	37884814 15940 1584191 1948358 43.012872514951 52.388076627929 516 0 2 516 774
107	37900754 40245 1577087 1950633 42.739025195948 52.401935174529 1239 68 104 111684 10447440
108	37940999 9288 1577564 1950110 42.879727788523 52.399203057386 290 17 104 19600 1485928
109	37950287 19404 1579107 1948768 42.958154993651 52.390823943739 628 0 2 628 942
110	37969691 42505 1577083 1950635 42.739024868166 52.401935250676 1308 68 104 117852 11020368
111	38012196 38419 1577127 1950578 42.739026383322 52.401625994785 1181 68 104 106480 9962528
112	38050615 27869 1577383 1950047 42.878384079853 52.399096395292 858 68 104 76812 7143888
113	38078484 8532 1577593 1948378 42.879728543372 52.388078199723 266 17 104 18541 1443569
114	38087016 5900 1577599 1950067 42.879728822467 52.399098309979 184 17 104 12800 962512
115	38092916 13452 1579695 1947550 42.960981800274 52.383730501802 436 0 2 436 654
116	38106368 40173 1577089 1950187 42.739025306926 52.400122159525 1234 68 104 112892 10690576
117	38146541 23306 1576990 1944631 42.737764324049 52.368306155383 754 0 2 753 1129
118	38169847 46197 1577092 1949665 42.73902546005 52.396278189744 1421 68 104 128524 12056816
119	38216044 46186 1577106 1950214 42.73902595792 52.400124243294 1421 68 104 128380 12032048
120	38262230 7816 1578582 1950584 42.955829888577 52.40162649867 244 17 104 16346 1227234
121	38270046 2946 1577572 1948386 42.879728026653 52.388078657542 92 17 104 6185 448777
122	38272992 23860 1577514 1944191 42.879009082747 52.365921145027 772 0 2 772 1158
123	38296852 6988 1578368 1950604 42.95492988355 52.401627970725 218 17 104 15516 1187808
124	38303840 10354 1578628 1950599 42.95613433526 52.401627814068 323 17 104 22458 1715682
125	38314194 11824 1578970 1947408 42.957519726874 52.383045814031 384 0 2 384 576
126	38326018 15352 1578500 1946387 42.955265516837 52.377868120874 496 0 2 496 744
127	38341370 41945 1577118 1950588 42.739026279216 52.40162660357 1291 68 104 116876 10972720
128	38383315 39538 1577122 1950582 42.739026303145 52.401626182415 1217 68 104 109576 10240448
129	38422853 39744 1577110 1950207 42.739026029997 52.400123650659 1223 68 104 109984 10268192
130	38462597 35084 1577112 1949643 42.739026077931 52.396276761668 1079 68 104 97312 9106976
131	38497681 17432 1585133 1950082 43.016905719668 52.399200719065 564 0 2 564 846
132	38515113 35028 1577339 1950114 42.878382194202 52.399203160746 1078 68 104 96200 8922784
133	38550141 17754 1578096 1950708 42.953720743999 52.402256182415 574 0 2 575 863
134	38567895 22012 1579994 1949530 42.962458928533 52.395400910048 712 0 2 712 1068
135	38589907 14956 1577637 1946682 42.879870029732 52.379622083772 484 0 2 484 726
136	38604863 10760 1584879 1950364 43.015862129925 52.400991501977 348 0 2 348 522
137	38615623 12790 1584881 1950675 43.015862377016 52.402025174529 414 0 2 415 623
138	38628413 18184 1580333 1948995 42.963924485617 52.392090281925 588 0 2 588 882
139	38646597 7482 1577568 1948436 42.879727848877 52.3882658342 233 17 104 16766 1323478
140	38654079 19728 1577140 1950572 42.739036601816 52.401625067392 640 0 2 640 960
141	38673807 16096 1585248 1950041 43.017502183163 52.399095673379 524 0 2 524 786
142	38689903 28176 1584696 1940853 43.015157230667 52.3496572057 912 0 2 912 1368
143	38718079 13352 1577292 1947905 42.877531208997 52.385171973299 432 0 2 432 648
144	38731431 14820 1579839 1949268 42.961806679941 52.39448140642 480 0 2 480 720
145	38746251 16552 1583496 1946972 43.009090175249 52.380768874905 536 0 2 536 804
146	38762803 16800 1600434 1949097 43.249072261387 52.393351454887 544 0 2 544 816
147	38779603 65 1583527 1599174 43.009297437957 43.183059033161 2 68 104 172 15440
148	38779668 11276 1583804 1950261 43.010835515084 52.400287188845 364 0 2 364 546
149	38790944 21792 1578659 1948184 42.956241415513 52.387302156293 704 0 2 704 1056
150	38812736 11584 1579101 1939574 42.958154264353 52.34337334368 376 0 2 376 564
152	38824320 32 1798253 1798253 48.117254474169 48.117254474169 1 68 68 68 4624
153	38824352 131 1643667 1769070 44.465581032499 47.373396198168 4 68 104 380 37072
154	38824483 32 1835054 1835054 48.963601821858 48.963601821858 1 68 68 68 4624
156	38824515 98 1596240 1670992 43.131693567425 45.362054455167 3 68 104 276 26256
157	38824613 32 1668527 1668527 45.185722138589 45.185722138589 1 68 68 68 4624
158	38824645 64 1801385 1810487 48.146731230879 48.242736320283 2 68 68 136 9248
159	38824709 98 1625196 1809101 43.787049047315 48.199511942286 3 68 104 276 26256
160	38824807 65 1886630 1887410 50.077365848238 50.135365848238 2 68 104 172 15440
161	38824872 32 1650274 1650274 44.762956505424 44.762956505424 1 68 68 68 4624
162	38824904 32 1586271 1586271 43.022224881445 43.022224881445 1 68 68 68 4624
164	38824936 132 1814815 1932319 48.417938629563 52.180888147394 4 104 104 416 43264
165	38825068 33 1746173 1746173 46.494767864465 46.494767864465 1 104 104 104 10816
166	38825101 32 1745601 1745601 46.478792801377 46.478792801377 1 68 68 68 4624
167	38825133 65 1645301 1799212 44.53594114812 48.129076824846 2 104 104 208 21632
169	38825198 31 1697870 1697870 46.01865248065 46.01865248065 1 68 68 68 4624
171	38825229 65 1708302 1900327 46.125022106757 50.753617147777 2 68 104 172 15440
173	38825294 196 1589004 1842999 43.042510618971 49.079893639357 6 68 104 552 52512
174	38825490 131 1834795 1850644 48.960318008071 49.187694267763 4 68 104 380 37072
175	38825621 162 1650585 1924049 44.786961957705 51.79647465926 5 68 104 448 41696
179	38825783 33 1661667 1661667 45.097402547082 45.097402547082 1 104 104 104 10816
180	38825816 320 1583408 1926334 43.007543100044 52.007543100044 10 40 49 445 19885
181	38826136 320 1583655 1926340 43.010374158155 52.010374158155 10 40 49 445 19885
182	38826456 320 1584231 1926750 43.013322010869 52.013322010869 10 40 49 445 19885
183	38826776 320 1588545 1927813 43.038748374209 52.038748374209 10 40 49 445 19885
186	38827096 351 1596321 1928235 43.132636760283 52.042301302912 11 40 49 486 21566
187	38827447 479 1593570 1946857 43.078104682339 52.380604874905 15 40 49 651 28369
188	38827926 396 1593570 1946857 43.078104682339 52.380604874905 9 0.002426011313 0.373061774861 0.536050698346 0.14698776422524
189	38828322 576 1592101 1932483 43.063441840266 52.182647850634 18 40 49 791 34871
190	38828898 438 1592101 1932483 43.063441840266 52.182647850634 10 0.011240653346 0.172273692479 0.573648258454 0.060485043656013
191	38829336 414 1593031 1903784 43.074816120835 51.015968225157 13 40 48 572 25244
192	38829750 393 1593031 1903784 43.074816120835 51.015968225157 9 0.002646214288 0.154457739145 0.306457920379 0.02930527431957
193	38830143 320 1594181 1928930 43.084059653804 52.084059653804 10 40 49 445 19885
194	38830463 320 1594959 1929440 43.092142502323 52.088815326209 10 40 49 445 19885
195	38830783 176 1594959 1929440 43.092142502323 52.088815326209 4 0.004071494027 0.012308284545 0.029218299496 0.00025601979225736
196	38830959 310 1596438 1930219 43.13382953289 52.13382953289 10 40 49 445 19885
197	38831269 381 1596709 1930421 43.136980401431 52.136294487067 12 40 49 537 24117
198	38831650 434 1596709 1930421 43.136980401431 52.136294487067 10 0.002044954198 0.066782856101 0.153409617654 0.0070134440387804
199	38832084 320 1596823 1930546 43.137526819482 52.137526819482 10 40 49 445 19885
200	38832404 320 1596914 1930560 43.138613280142 52.138613280142 10 40 49 445 19885
201	38832724 320 1597655 1930558 43.144316618962 52.137526819482 10 40 49 445 19885
202	38833044 261 1597655 1908401 43.144316618962 51.142508915502 6 0.00351462331 0.014628218442 0.0396754005 0.00034620618592851
203	38833305 320 1597425 1930939 43.142111092107 52.142111092107 10 40 49 445 19885
204	38833625 318 1598185 1930949 43.148832881038 52.142464129318 10 40 49 445 19885
205	38833943 438 1598185 1930949 43.148832881038 52.142464129318 10 0.002765020278 0.010219600896 0.047888705537 0.00027642235899998
206	38834381 319 1598002 1931470 43.146365618005 52.146619475141 10 40 49 445 19885
207	38834700 437 1598002 1931470 43.146365618005 52.146619475141 10 0.00276524192 0.048066392109 0.102596188599 0.0028373741422386
208	38835137 320 1598654 1931703 43.166776350932 52.166776350932 10 40 49 445 19885
211	38835457 415 1639755 1931950 44.174470376746 52.169223707774 13 41 49 590 26878
212	38835872 395 1639755 1931950 44.174470376746 52.169223707774 9 0.002327537081 0.031069623826 0.058507391807 0.0010820361519423
213	38836267 320 1599772 1932629 43.218558674213 52.218558674213 10 40 49 445 19885
214	38836587 351 1600034 1932866 43.221286818209 52.220645899359 11 40 49 493 22189
215	38836938 438 1600034 1932866 43.221286818209 52.220645899359 10 0.002087225146 0.069632649933 0.109668647205 0.0052739168047264
216	38837376 320 1600341 1933004 43.248101173434 52.248101173434 10 40 49 445 19885
217	38837696 383 1600556 1933411 43.250207349291 52.251691786481 12 40 49 531 23583
218	38838079 438 1600556 1933411 43.250207349291 52.251691786481 10 0.002106175857 0.024548403387 0.06639154219 0.00095461367951873
219	38838517 320 1600702 1933565 43.315708867274 52.315708867274 10 40 49 445 19885
220	38838837 320 1600741 1933570 43.316224311944 52.316224311944 10 40 49 445 19885
221	38839157 352 1600963 1911694 43.317977657768 51.317995493798 11 40 48 486 21552
222	38839509 351 1600963 1911694 43.317977657768 51.317995493798 8 0.002205966435 0.007425963364 0.026147566239 0.0001077501705734
223	38839860 384 1600753 1912200 43.316224311944 51.322272536433 12 40 48 530 23464
224	38840244 264 1738015 1912200 46.397019324225 51.322272536433 6 0.004602848805 0.080795012281 0.125693103622 0.0070666468546894
225	38840508 320 1601241 1940045 43.345498642651 52.345498642651 10 40 49 445 19885
226	38840828 320 1604612 1943912 43.364461026154 52.364461026154 10 40 49 445 19885
227	38841148 317 1605004 1945186 43.368146339027 52.371829671638 10 40 49 445 19885
228	38841465 437 1605004 1945186 43.368146339027 52.371829671638 10 0.002225743278 0.064884854332 0.100175149391 0.0043642855412698
229	38841902 351 1604513 1949297 43.364218116062 52.394483352758 11 40 49 493 22189
230	38842253 439 1604513 1949297 43.364218116062 52.394483352758 10 0.002106962062 0.048984710107 0.108045363186 0.0031267533664942
231	38842692 320 1605133 1945605 43.373951180838 52.373951180838 10 40 49 445 19885
232	38843012 416 1605371 1915943 43.376778099355 51.377410792134 13 40 48 578 25766
233	38843428 351 1605371 1915943 43.376778099355 51.377410792134 8 0.002706672379 0.393897071736 0.479404642095 0.15769469821765
234	38843779 320 1605497 1949618 43.395885852398 52.395885852398 10 40 49 445 19885
235	38844099 288 1605527 1917269 43.418508185772 51.418508185772 9 40 48 396 17484
236	38844387 448 1605509 1916974 43.395885852398 51.399230141198 14 40 48 619 27419
237	38844835 306 1680586 1916974 45.503083417854 51.399230141198 7 0.002406737054 0.107197565456 0.15139829584 0.011950214046843
238	38845141 189 1771473 1773454 47.406335190179 47.450595866103 6 7 12 57 559
239	38845330 217 1680586 1773454 45.503083417854 47.450595866103 7 8 8 56 448
240	38845547 510 1605752 1917512 43.421313926026 51.421595861966 16 40 48 697 30427
241	38846057 394 1605752 1917512 43.421313926026 51.421595861966 9 0.00216676667 0.026654651884 0.073546958916 0.0013666745574349
242	38846451 288 1605910 1917649 43.494654514128 51.494654514128 9 40 48 396 17484
243	38846739 270 1605924 1917663 43.4957732982 51.4957732982 9 40 48 396 17484
244	38847009 288 1605965 1917986 43.499130365672 51.499130365672 9 40 48 396 17484
245	38847297 510 1614259 1917867 43.577167316642 51.498178714378 16 40 48 695 30309
246	38847807 352 1614259 1917867 43.577167316642 51.498178714378 8 0.002348212713 0.081394018442 0.120574064043 0.006935392605744
247	38848159 288 1606584 1918160 43.501874595415 51.501874595415 9 40 48 396 17484
248	38848447 288 1609009 1918380 43.513658597521 51.504220174578 9 40 48 396 17484
249	38848735 395 1609009 1918380 43.513658597521 51.504220174578 9 0.002306258362 0.013206991256 0.06299279485 0.00058749996980812
250	38849130 288 1605922 1917661 43.494654514128 51.494654514128 9 40 48 396 17484
251	38849418 88 1820531 1866893 48.497341250485 49.500527179057 2 0.002686736357 0.005872664929 0.008559401286 4.1706745620332e-005
252	38849506 351 1608685 1921353 43.512473952724 51.518515442318 11 40 48 486 21552
253	38849857 395 1608685 1920675 43.512473952724 51.514668332454 9 0.002851009805 0.015537966782 0.068213666182 0.00076174891877698
254	38850252 279 1616240 1921570 43.69910739176 51.69910739176 9 40 48 396 17484
255	38850531 288 1616432 1921766 43.701548448997 51.701548448997 9 40 48 396 17484
256	38850819 350 1616441 1922124 43.701692952829 51.704646781375 11 40 48 487 21625
257	38851169 391 1616441 1922124 43.701692952829 51.704646781375 9 0.00252593467 0.011729607046 0.044657861267 0.00032815838897332
258	38851560 255 1625272 1922275 43.788132082069 51.706193398394 8 40 48 349 15275
259	38851815 351 1625272 1922275 43.788132082069 51.706193398394 8 0.002325553122 0.086583633072 0.163966593987 0.0088320559011659
260	38852166 288 1622707 1922441 43.734658046393 51.734658046393 9 40 48 396 17484
261	38852454 414 1577133 1924417 42.739026601816 51.799986411106 13 39 48 580 25982
262	38852868 351 1577133 1923029 42.739026601816 51.74247235226 8 0.002925329908 0.025387320681 0.071729954913 0.0009989959472168
263	38853219 320 1577285 1924537 42.877221208997 51.877221208997 10 39 48 435 19005
264	38853539 320 1577475 1924576 42.878559082747 51.878559082747 10 39 48 435 19005
265	38853859 286 1577763 1925089 42.881504976685 51.88298264347 9 39 48 390 16980
266	38854145 393 1577763 1925089 42.881504976685 51.88298264347 9 0.002945893938 0.004423560723 0.033325388838 0.00012519156978171
267	38854538 384 1577925 1924924 42.883232132834 51.881295498493 12 39 48 519 22533
268	38854922 440 1577925 1924924 42.883232132834 51.881295498493 10 0.002305595541 0.054670727155 0.087964258984 0.0031335797062085
269	38855362 320 1578088 1925259 42.950964029413 51.950964029413 10 39 48 435 19005
270	38855682 384 1591675 1925828 43.059015731149 51.956464749005 12 39 48 516 22286
271	38856066 392 1591675 1925828 43.059015731149 51.956464749005 9 0.002488796624 0.108051701736 0.178250748911 0.013046671825821
272	38856458 320 1580955 1925948 42.967904078308 51.967904078308 10 39 48 435 19005
275	38856778 320 1581476 1926168 42.971408039992 51.970670741447 10 39 48 435 19005
282	38857098 62 1850022 1850349 49.180394570293 49.182848850784 2 5 6 11 61
283	38857160 62 1850022 1850349 49.180394570293 49.182848850784 2 1 1 2 2
284	38857222 439 1581476 1926168 42.971408039992 51.970670741447 10 0.002086418569 0.005782628425 0.034234079607 0.00013019708544792
285	38857661 439 1596321 1928235 43.132636760283 52.042301302912 10 0.002626864158 0.093888386074 0.251934968404 0.013776908543743
286	38858100 31 1637593 1637593 44.08490880519 44.08490880519 1 14 14 14 196
287	38858131 61 1596321 1637593 43.132636760283 44.08490880519 2 4 4 8 32
288	38858192 155 1738015 1770408 46.397019324225 47.382959414033 5 3 3 15 45
291	38858347 124 1766130 1770408 47.336401518375 47.382959414033 4 2 5 14 54
292	38858471 126 1825654 1924417 48.760227236396 51.799986411106 4 9 12 42 446
293	38858597 154 1684039 1924417 45.737583376301 51.799986411106 5 5 5 25 125
298	38858751 64 1687941 1688280 45.933201889324 45.937029796019 2 16 17 33 545
299	38858815 62 1687941 1688280 45.933201889324 45.937029796019 2 1 1 2 2
304	38858877 62 1681329 1921353 45.507976315086 51.518515442318 2 2 2 4 8
307	38858939 124 1660483 1853091 45.059603659672 49.204560742563 4 1 1 4 4
308	38859063 128 1819808 1877373 48.446515354539 49.777608252612 4 10 13 46 534
309	38859191 124 1819808 1877373 48.446515354539 49.777608252612 4 0 0 0 0
310	38859315 222 1744482 1749101 46.466826225356 46.565283344588 7 9 15 84 1036
311	38859537 216 1744482 1749101 46.466826225356 46.565283344588 7 3 3 21 63
313	38859753 31 1922275 1922275 51.706193398394 51.706193398394 1 3 3 3 9
315	38859784 31 1878057 1878057 49.882573138172 49.882573138172 1 1 1 1 1
318	38859815 64 1782148 1782153 47.950964029413 47.950964029413 2 84 84 168 14112
319	38859879 64 1782148 1782153 47.950964029413 47.950964029413 2 84 84 168 14112
324	38859943 62 1713570 1737106 46.265923174932 46.393605777324 2 0 0 0 0
327	38860005 31 1910788 1910788 51.223640589815 51.223640589815 1 7 7 7 49
328	38860036 31 1910788 1910788 51.223640589815 51.223640589815 1 1 1 1 1
329	38860067 124 1601131 1857397 43.319757657788 49.325061009089 4 1 2 7 13
330	38860191 248 1631722 1843037 44.030898967006 49.080636851632 8 2 2 16 32
331	38860439 62 1681329 1921353 45.507976315086 51.518515442318 2 2 3 5 13
332	38860501 64 1713570 1737106 46.265923174932 46.393605777324 2 16 17 33 545
335	38860565 62 1627550 1654628 43.956405622688 44.973955008529 2 1 1 2 2
336	38860627 154 1639755 1910116 44.174470376746 51.19228049057 5 2 2 10 20
337	38860781 31 1915336 1915336 51.369584230946 51.369584230946 1 1 1 1 1
338	38860812 124 1660483 1853091 45.059603659672 49.204560742563 4 3 6 18 86
339	38860936 93 1601131 1857397 43.319757657788 49.325061009089 3 6 8 21 149
340	38861029 277 1614959 1869351 43.64308731841 49.521553790959 9 1 2 14 24
341	38861306 253 1614959 1869351 43.64308731841 49.521553790959 8 9 16 100 1292
342	38861559 62 1824387 1873868 48.704796612391 49.719394794988 2 6 7 13 85
343	38861621 62 1824387 1873868 48.704796612391 49.719394794988 2 0 0 0 0
344	38861683 31 1915336 1915336 51.369584230946 51.369584230946 1 3 3 3 9
347	38861714 256 1631722 1843037 44.030898967006 49.080636851632 8 16 23 156 3084
348	38861970 256 1666999 1930556 45.137526819482 52.137526819482 8 84 84 672 56448
349	38862226 256 1666999 1930556 45.137526819482 52.137526819482 8 84 84 672 56448
352	38862482 128 1600746 1640909 43.316224311944 44.316224311944 4 84 84 336 28224
353	38862610 128 1600746 1640909 43.316224311944 44.316224311944 4 84 84 336 28224
356	38862738 216 1594001 1836201 43.082372955738 49.010510200473 7 2 3 15 33
361	38862954 384 1637559 1886889 44.084059653804 50.084059653804 12 84 84 1008 84672
362	38863338 384 1637559 1886889 44.084059653804 50.084059653804 12 84 84 1008 84672
365	38863722 191 1594001 1755893 43.082372955738 47.05192097803 6 11 16 81 1111
366	38863913 123 1640004 1910116 44.182310375838 51.19228049057 4 5 8 26 174
369	38864036 62 1627550 1654628 43.956405622688 44.973955008529 2 3 4 7 25
372	38864098 448 1605915 1917659 43.494654514128 51.494654514128 14 84 84 1176 98784
373	38864546 448 1605915 1917659 43.494654514128 51.494654514128 14 84 84 1176 98784
378	38864994 64 1605502 1605507 43.395885852398 43.395885852398 2 84 84 168 14112
379	38865058 64 1605502 1605507 43.395885852398 43.395885852398 2 84 84 168 14112
380	38865122 64 1671482 1671487 45.373951180838 45.373951180838 2 84 84 168 14112
381	38865186 64 1671482 1671487 45.373951180838 45.373951180838 2 84 84 168 14112
382	38865250 64 1749952 1749957 46.734658046393 46.734658046393 2 84 84 168 14112
383	38865314 64 1749952 1749957 46.734658046393 46.734658046393 2 84 84 168 14112

