version 2
run General-3-20201224-23:04:37-14736
attr configname General
attr datetime 20201224-23:04:37
attr experiment General
attr inifile multi_test_real.ini
attr iterationvars "$pathlosstype=\"LogNormalShadowing\""
attr iterationvarsf pathlosstype=LogNormalShadowing-
attr measurement "$pathlosstype=\"LogNormalShadowing\""
attr network myuav.UAVNetwork_Multi
attr processid 14736
attr repetition 0
attr replication #0
attr resultdir results
attr runnumber 3
attr seedset 3
itervar pathlosstype "\"LogNormalShadowing\""
param *.configurator.addStaticRoutes false
param **.arp.typename "\"GlobalArp\""
param **.basicHosts[*].forwarding false
param **.basicHosts[*].multicastForwarding false
param **.hostRouters[*].forwarding true
param **.hostRouters[*].multicastForwarding true
param *.numHosts 30
param *.configurator.config "xmldoc(\"multi_test.xml\")"
param *.configurator.dumpAddresses true
param *.configurator.dumpTopology true
param *.configurator.dumpLinks true
param *.configurator.dumpRoutes true
param *.configurator.dumpConfig "\"multi_test_dump.xml\""
param *.visualizer.osgVisualizer.typename "\"IntegratedOsgVisualizer\""
param *.visualizer.osgVisualizer.sceneVisualizer.clearColor "\"skyblue\""
param *.visualizer.osgVisualizer.sceneVisualizer.sceneImage "\"showcases/desert\""
param *.visualizer.osgVisualizer.sceneVisualizer.sceneImageSize 2000m
param *.visualizer.osgVisualizer.sceneVisualizer.axisLength 500m
param *.visualizer.osgVisualizer.sceneVisualizer.sceneMinX 0m
param *.visualizer.osgVisualizer.sceneVisualizer.sceneMinY 0m
param *.visualizer.osgVisualizer.sceneVisualizer.sceneMinZ 0m
param *.visualizer.osgVisualizer.sceneVisualizer.sceneMaxX 2000m
param *.visualizer.osgVisualizer.sceneVisualizer.sceneMaxY 2000m
param *.visualizer.osgVisualizer.sceneVisualizer.sceneMaxZ 1000m
param *.visualizer.*.networkRouteVisualizer.displayRoutes true
param *.visualizer.*.networkRouteVisualizer.packetFilter "\"ping*\""
param *.visualizer.*.networkRouteVisualizer.lineWidth 10
param *.visualizer.*.networkRouteVisualizer.lineShift 0
param *.visualizer.*.mobilityVisualizer.displayMovementTrails true
param *.visualizer.*.mobilityVisualizer.animationSpeed 1
param *.hostRouters[*].wlan[0].typename "\"WirelessInterface\""
param *.basicHosts[*].wlan[0].typename "\"WirelessInterface\""
param *.hostRouters[*].wlan[0].mac.typename "\"CsmaCaMac\""
param *.hostRouters[*].wlan[0].mac.ackTimeout 300us
param *.basicHosts[*].wlan[0].mac.typename "\"CsmaCaMac\""
param *.basicHosts[*].wlan[0].mac.ackTimeout 300us
param **.wlan[*].queue.typename "\"DropTailQueue\""
param *.hostRouters[*].wlan[0].mac.maxQueueSize 20000
param *.basicHosts[*].wlan[0].mac.maxQueueSize 10000
param *.radioMedium.typename "\"ApskScalarRadioMedium\""
param *.radioMedium.backgroundNoise.power -90dBm
param *.radioMedium.mediumLimitCache.carrierFrequency 2GHz
param *.hostRouters[*].wlan[0].radio.typename "\"ApskScalarRadio\""
param *.hostRouters[*].wlan[0].radio.carrierFrequency 2GHz
param *.basicHosts[*].wlan[0].radio.typename "\"ApskScalarRadio\""
param *.basicHosts[*].wlan[0].radio.carrierFrequency 2GHz
param **.ignorePartialInterference true
param *.hostRouters[*].wlan[0].radio.bandwidth 10MHz
param *.hostRouters[*].wlan[0].radio.transmitter.preambleDuration 10us
param *.hostRouters[*].wlan[0].radio.transmitter.headerLength 8b
param *.basicHosts[*].wlan[0].radio.bandwidth 10MHz
param *.basicHosts[*].wlan[0].radio.transmitter.preambleDuration 10us
param *.basicHosts[*].wlan[0].radio.transmitter.headerLength 8b
param *.hostRouters[*].wlan[0].radio.receiver.sensitivity -85dBm
param *.hostRouters[*].wlan[0].radio.receiver.energyDetection -85dBm
param *.hostRouters[*].wlan[0].radio.receiver.snirThreshold 4dB
param *.basicHosts[*].wlan[0].radio.receiver.sensitivity -85dBm
param *.basicHosts[*].wlan[0].radio.receiver.energyDetection -85dBm
param *.basicHosts[*].wlan[0].radio.receiver.snirThreshold 4dB
param **.hostRouters[*].**.bitrate 1Mbps
param **.basicHosts[*].**.bitrate 1Mbps
param **.hostRouters[*].wlan[*].radio.transmitter.power 15mW
param **.basicHosts[*].wlan[*].radio.transmitter.power 5mW
param *.radioMedium.pathLoss.typename "\"LogNormalShadowing\""
param *.physicalEnvironment.coordinateSystemModule "\"coordinateSystem\""
param *.*.mobility.coordinateSystemModule "\"coordinateSystem\""
param *.physicalEnvironment.config "xmldoc(\"obstacles.xml\")"
param *.radioMedium.obstacleLoss.typename "\"DielectricObstacleLoss\""
param **.hostRouters[*].app[*].typename "\"PingApp\""
param **.basicHosts[*].app[*].typename "\"PingApp\""
param *.hostRouters[*].numApps 1
param *.basicHosts[*].numApps 1
param **.basicHosts[*].app[*].count 1
param **.basicHosts[*].app[*].continuous true
param **.hostRouters[*].app[*].count 1
param **.hostRouters[*].app[*].continuous true
param **.hostRouters[0].app[*].destAddr "\"hostRouters[1] hostRouters[2] hostRouters[3] hostRouters[4]\""
param **.hostRouters[1].app[*].destAddr "\"hostRouters[0] hostRouters[2] hostRouters[3] hostRouters[4]\""
param **.hostRouters[2].app[*].destAddr "\"hostRouters[0] hostRouters[1] hostRouters[3] hostRouters[4]\""
param **.hostRouters[3].app[*].destAddr "\"hostRouters[0] hostRouters[1] hostRouters[2] hostRouters[4]\""
param **.hostRouters[4].app[*].destAddr "\"hostRouters[0] hostRouters[1] hostRouters[2] hostRouters[3]\""
param **.hostRouters[*].app[*].startTime uniform(5s,6s)
param **.hostRouters[*].app[*].printPing true
param **.basicHosts[*].app[*].destAddr "\"*\""
param **.basicHosts[*].app[*].startTime uniform(3s,4s)
param **.basicHosts[*].app[*].hopLimit 1
param **.basicHosts[*].app[*].printPing true
param **.hostRouters[*].mobility.typename "\"MassMobility\""
param **.hostRouters[*].mobility.initFromDisplayString false
param **.basicHosts[*].mobility.typename "\"MassMobility\""
param **.basicHosts[*].mobility.initFromDisplayString false
param **.hostRouters[*].osgModel "\"3d/drone.ive.80.scale.0,0,90.rot\""
param **.basicHosts[*].osgModel "\"3d/drone.ive.10.scale.0,0,90.rot\""
param **.hostRouters[*].mobility.initialMovementHeading "uniform(0deg, 360deg)"
param **.hostRouters[*].mobility.initialMovementElevation "uniform(-90deg, 90deg)"
param **.hostRouters[*].mobility.rotationAxisAngle uniform(-10deg,10deg)
param **.hostRouters[*].mobility.faceForward false
param **.basicHosts[*].mobility.initialMovementHeading "uniform(0deg, 360deg)"
param **.basicHosts[*].mobility.initialMovementElevation "uniform(-90deg, 90deg)"
param **.basicHosts[*].mobility.rotationAxisAngle uniform(-10deg,10deg)
param **.basicHosts[*].mobility.faceForward false
param **.hostRouters[*].mobility.speed truncnormal(50mps,8mps)
param **.hostRouters[*].mobility.changeInterval "truncnormal(2s, 1s)"
param **.hostRouters[*].mobility.angleDelta "normal(-20deg, 20deg)"
param **.basicHosts[*].mobility.speed "truncnormal(20mps, 4mps)"
param **.basicHosts[*].mobility.changeInterval "truncnormal(3s, 1s)"
param **.basicHosts[*].mobility.angleDelta "normal(-10deg, 10deg)"
param **.basicHosts[*].mobility.initialZ 200m
param **.basicHosts[*].mobility.constraintAreaMinZ 100m
param **.basicHosts[*].mobility.constraintAreaMaxZ 300m
param **.hostRouters[0].mobility.initialX 700m
param **.hostRouters[0].mobility.initialY 1000m
param **.hostRouters[1].mobility.initialX 1500m
param **.hostRouters[1].mobility.initialY 500m
param **.hostRouters[2].mobility.initialX 1500m
param **.hostRouters[2].mobility.initialY 1200m
param **.hostRouters[3].mobility.initialX 300m
param **.hostRouters[3].mobility.initialY 600m
param **.hostRouters[4].mobility.initialX 1000m
param **.hostRouters[4].mobility.initialY 1000m
param **.basicHosts[*].mobility.constraintAreaMinX 200m
param **.basicHosts[*].mobility.constraintAreaMaxX 1300m
param **.basicHosts[*].mobility.constraintAreaMinY 200m
param **.basicHosts[*].mobility.constraintAreaMaxY 1300m
param **.hostRouters[0].mobility.getOthersPosition true
param **.hostRouters[0].mobility.basicNodeNum 30
param **.hostRouters[0].mobility.routerNodeNum 5

scalar UAVNetwork_Multi.radioMedium.propagation "Arrival computation count" 420036
scalar UAVNetwork_Multi.radioMedium.obstacleLoss "Obstacle loss intersection computation count" 1260108
scalar UAVNetwork_Multi.radioMedium.obstacleLoss "Obstacle loss intersection count" 93165
scalar UAVNetwork_Multi.radioMedium "transmission count" 12354
scalar UAVNetwork_Multi.radioMedium "signal send count" 420036
scalar UAVNetwork_Multi.radioMedium "reception computation count" 420036
scalar UAVNetwork_Multi.radioMedium "interference computation count" 1178026
scalar UAVNetwork_Multi.radioMedium "reception decision computation count" 158144
scalar UAVNetwork_Multi.radioMedium "listening decision computation count" 604202
scalar UAVNetwork_Multi.radioMedium "reception cache hit" 82.940455921916
attr unit %
scalar UAVNetwork_Multi.radioMedium "interference cache hit" 66.666666666667
attr unit %
scalar UAVNetwork_Multi.radioMedium "noise cache hit" 0
attr unit %
scalar UAVNetwork_Multi.radioMedium "snir cache hit" 50
attr unit %
scalar UAVNetwork_Multi.radioMedium "reception decision cache hit" 50
attr unit %
scalar UAVNetwork_Multi.radioMedium "reception result cache hit" 0
attr unit %
scalar UAVNetwork_Multi.basicHosts[0].lo[0].lo rcvdPkFromHl:count 2
attr interpolationmode none
attr source packetReceivedFromUpper
attr title "packets received from higher layer, count"
scalar UAVNetwork_Multi.basicHosts[0].lo[0].lo rcvdPkFromHl:sum(packetBytes) 168
attr interpolationmode none
attr source packetReceivedFromUpper
attr title "packets received from higher layer, sum(packetBytes)"
scalar UAVNetwork_Multi.basicHosts[0].lo[0].lo passedUpPk:count 2
attr interpolationmode none
attr source packetSentToUpper
attr title "packets passed to higher layer, count"
scalar UAVNetwork_Multi.basicHosts[0].lo[0].lo passedUpPk:sum(packetBytes) 168
attr interpolationmode none
attr source packetSentToUpper
attr title "packets passed to higher layer, sum(packetBytes)"
scalar UAVNetwork_Multi.basicHosts[0].wlan[0].mac numRetry 138
scalar UAVNetwork_Multi.basicHosts[0].wlan[0].mac numSentWithoutRetry 36
scalar UAVNetwork_Multi.basicHosts[0].wlan[0].mac numGivenUp 11
scalar UAVNetwork_Multi.basicHosts[0].wlan[0].mac numCollision 667
scalar UAVNetwork_Multi.basicHosts[0].wlan[0].mac numSent 55
scalar UAVNetwork_Multi.basicHosts[0].wlan[0].mac numReceived 78
scalar UAVNetwork_Multi.basicHosts[0].wlan[0].mac numSentBroadcast 86
scalar UAVNetwork_Multi.basicHosts[0].wlan[0].mac numReceivedBroadcast 849
scalar UAVNetwork_Multi.basicHosts[0].wlan[0].mac packetDropIncorrectlyReceived:count 667
attr interpolationmode none
attr source packetDropReasonIsIncorrectlyReceived(packetDropped)
attr title "packet drop: incorrectly received, count"
scalar UAVNetwork_Multi.basicHosts[0].wlan[0].mac packetDropIncorrectlyReceived:sum(packetBytes) 46165
attr interpolationmode none
attr source packetDropReasonIsIncorrectlyReceived(packetDropped)
attr title "packet drop: incorrectly received, sum(packetBytes)"
scalar UAVNetwork_Multi.basicHosts[0].wlan[0].mac packetDropNotAddressedToUs:count 2153
attr interpolationmode none
attr source packetDropReasonIsNotAddressedToUs(packetDropped)
attr title "packet drop: not addressed to us, count"
scalar UAVNetwork_Multi.basicHosts[0].wlan[0].mac packetDropNotAddressedToUs:sum(packetBytes) 166432
attr interpolationmode none
attr source packetDropReasonIsNotAddressedToUs(packetDropped)
attr title "packet drop: not addressed to us, sum(packetBytes)"
scalar UAVNetwork_Multi.basicHosts[0].wlan[0].mac packetDropQueueOverflow:count 0
attr interpolationmode none
attr source packetDropReasonIsQueueOverflow(packetDropped)
attr title "packet drop: queue overflow, count"
scalar UAVNetwork_Multi.basicHosts[0].wlan[0].mac packetDropQueueOverflow:sum(packetBytes) 0
attr interpolationmode none
attr source packetDropReasonIsQueueOverflow(packetDropped)
attr title "packet drop: queue overflow, sum(packetBytes)"
scalar UAVNetwork_Multi.basicHosts[0].wlan[0].mac packetDropRetryLimitReached:count 11
attr interpolationmode none
attr source packetDropReasonIsRetryLimitReached(packetDropped)
attr title "packet drop: retry limit reached, count"
scalar UAVNetwork_Multi.basicHosts[0].wlan[0].mac packetDropRetryLimitReached:sum(packetBytes) 784
attr interpolationmode none
attr source packetDropReasonIsRetryLimitReached(packetDropped)
attr title "packet drop: retry limit reached, sum(packetBytes)"
scalar UAVNetwork_Multi.basicHosts[0].wlan[0].mac linkBroken:count 11
attr interpolationmode none
attr source linkBroken
attr title "link break, count"
statistic UAVNetwork_Multi.basicHosts[0].wlan[0].radio minSnir:histogram
field count 4877
field mean 11.113121120006
field stddev 17.754476980301
field min 0.029615366155013
field max 243.01852013752
field sum 54198.691702268
field sqrsum 2139336.4295007
attr source minimumSnir(packetSentToUpper)
attr title "Min SNIR, histogram"
bin	-inf	0
bin	0	2525
bin	6	1150
bin	12	468
bin	18	272
bin	24	163
bin	30	83
bin	36	49
bin	42	22
bin	48	19
bin	54	10
bin	60	7
bin	66	11
bin	72	11
bin	78	9
bin	84	12
bin	90	8
bin	96	9
bin	102	7
bin	108	7
bin	114	4
bin	120	5
bin	126	4
bin	132	2
bin	138	6
bin	144	1
bin	150	3
bin	156	3
bin	162	1
bin	168	0
bin	174	1
bin	180	2
bin	186	1
bin	192	0
bin	198	0
bin	204	0
bin	210	1
bin	216	0
bin	222	0
bin	228	0
bin	234	0
bin	240	1
bin	246	0
statistic UAVNetwork_Multi.basicHosts[0].wlan[0].radio packetErrorRate:histogram
field count 4877
field mean 0.019351425521856
field stddev 0.12928726142855
field min 0
field max 1
field sum 94.376902270092
field sqrsum 83.329623133742
attr source packetErrorRate(packetSentToUpper)
attr title "Packet error rate, histogram"
bin	-inf	0
bin	0	4720
bin	0.02	19
bin	0.04	7
bin	0.06	9
bin	0.08	1
bin	0.1	4
bin	0.12	2
bin	0.14	2
bin	0.16	2
bin	0.18	5
bin	0.2	3
bin	0.22	2
bin	0.24	1
bin	0.26	2
bin	0.28	0
bin	0.3	1
bin	0.32	0
bin	0.34	0
bin	0.36	1
bin	0.38	2
bin	0.4	1
bin	0.42	0
bin	0.44	0
bin	0.46	0
bin	0.48	2
bin	0.5	0
bin	0.52	1
bin	0.54	0
bin	0.56	0
bin	0.58	1
bin	0.6	1
bin	0.62	1
bin	0.64	3
bin	0.66	1
bin	0.68	1
bin	0.7	0
bin	0.72	1
bin	0.74	2
bin	0.76	1
bin	0.78	1
bin	0.8	2
bin	0.82	0
bin	0.84	0
bin	0.86	0
bin	0.88	3
bin	0.9	1
bin	0.92	1
bin	0.94	2
bin	0.96	6
bin	0.98	54
bin	1	8
bin	1.02	0
statistic UAVNetwork_Multi.basicHosts[0].wlan[0].radio bitErrorRate:histogram
field count 4877
field mean 0.0005118084911219
field stddev 0.0066266667160272
field min 0
field max 0.22076413781582
field sum 2.4960900112015
field sqrsum 0.21539590262996
attr source bitErrorRate(packetSentToUpper)
attr title "Bit error rate, histogram"
bin	-inf	0
bin	0	4806
bin	0.0048	13
bin	0.0096	10
bin	0.0144	9
bin	0.0192	8
bin	0.024	5
bin	0.0288	4
bin	0.0336	6
bin	0.0384	3
bin	0.0432	3
bin	0.048	2
bin	0.0528	1
bin	0.0576	0
bin	0.0624	1
bin	0.0672	1
bin	0.072	0
bin	0.0768	0
bin	0.0816	0
bin	0.0864	0
bin	0.0912	0
bin	0.096	0
bin	0.1008	0
bin	0.1056	1
bin	0.1104	0
bin	0.1152	0
bin	0.12	0
bin	0.1248	0
bin	0.1296	0
bin	0.1344	0
bin	0.1392	0
bin	0.144	0
bin	0.1488	0
bin	0.1536	0
bin	0.1584	0
bin	0.1632	0
bin	0.168	0
bin	0.1728	2
bin	0.1776	0
bin	0.1824	0
bin	0.1872	0
bin	0.192	0
bin	0.1968	0
bin	0.2016	1
bin	0.2064	0
bin	0.2112	0
bin	0.216	1
bin	0.2208	0
statistic UAVNetwork_Multi.basicHosts[0].wlan[0].radio symbolErrorRate:histogram
field count 4877
field mean 0.0005118084911219
field stddev 0.0066266667160272
field min 0
field max 0.22076413781582
field sum 2.4960900112015
field sqrsum 0.21539590262996
attr source symbolErrorRate(packetSentToUpper)
attr title "Symbol error rate, histogram"
bin	-inf	0
bin	0	4806
bin	0.0048	13
bin	0.0096	10
bin	0.0144	9
bin	0.0192	8
bin	0.024	5
bin	0.0288	4
bin	0.0336	6
bin	0.0384	3
bin	0.0432	3
bin	0.048	2
bin	0.0528	1
bin	0.0576	0
bin	0.0624	1
bin	0.0672	1
bin	0.072	0
bin	0.0768	0
bin	0.0816	0
bin	0.0864	0
bin	0.0912	0
bin	0.096	0
bin	0.1008	0
bin	0.1056	1
bin	0.1104	0
bin	0.1152	0
bin	0.12	0
bin	0.1248	0
bin	0.1296	0
bin	0.1344	0
bin	0.1392	0
bin	0.144	0
bin	0.1488	0
bin	0.1536	0
bin	0.1584	0
bin	0.1632	0
bin	0.168	0
bin	0.1728	2
bin	0.1776	0
bin	0.1824	0
bin	0.1872	0
bin	0.192	0
bin	0.1968	0
bin	0.2016	1
bin	0.2064	0
bin	0.2112	0
bin	0.216	1
bin	0.2208	0
scalar UAVNetwork_Multi.basicHosts[0].wlan[0].radio transmissionState:count 1472
attr interpolationmode sample-hold
attr source transmissionStateChanged
attr title "Radio transmission state, count"
scalar UAVNetwork_Multi.basicHosts[0].wlan[0].radio receptionState:count 14206
attr interpolationmode sample-hold
attr source receptionStateChanged
attr title "Radio reception state, count"
scalar UAVNetwork_Multi.basicHosts[0].wlan[0].radio radioMode:count 739
attr interpolationmode sample-hold
attr source radioModeChanged
attr title "Radio mode, count"
scalar UAVNetwork_Multi.basicHosts[0].ipv4.ip packetDropAddressResolutionFailed:count 0
attr interpolationmode none
attr source packetDropReasonIsAddressResolutionFailed(packetDropped)
attr title "packet drop: address resolution failed, count"
scalar UAVNetwork_Multi.basicHosts[0].ipv4.ip packetDropAddressResolutionFailed:sum(packetBytes) 0
attr interpolationmode none
attr source packetDropReasonIsAddressResolutionFailed(packetDropped)
attr title "packet drop: address resolution failed, sum(packetBytes)"
scalar UAVNetwork_Multi.basicHosts[0].ipv4.ip packetDropHopLimitReached:count 0
attr interpolationmode none
attr source packetDropReasonIsHopLimitReached(packetDropped)
attr title "packet drop: hop limit reached, count"
scalar UAVNetwork_Multi.basicHosts[0].ipv4.ip packetDropHopLimitReached:sum(packetBytes) 0
attr interpolationmode none
attr source packetDropReasonIsHopLimitReached(packetDropped)
attr title "packet drop: hop limit reached, sum(packetBytes)"
scalar UAVNetwork_Multi.basicHosts[0].ipv4.ip packetDropForwardingDisabled:count 12
attr interpolationmode none
attr source packetDropReasonIsForwardingDisabled(packetDropped)
attr title "packet drop: forwarding disabled, count"
scalar UAVNetwork_Multi.basicHosts[0].ipv4.ip packetDropForwardingDisabled:sum(packetBytes) 972
attr interpolationmode none
attr source packetDropReasonIsForwardingDisabled(packetDropped)
attr title "packet drop: forwarding disabled, sum(packetBytes)"
scalar UAVNetwork_Multi.basicHosts[0].ipv4.ip packetDropNoInterfaceFound:count 0
attr interpolationmode none
attr source packetDropReasonIsNoInterfaceFound(packetDropped)
attr title "packet drop: no interface found, count"
scalar UAVNetwork_Multi.basicHosts[0].ipv4.ip packetDropNoInterfaceFound:sum(packetBytes) 0
attr interpolationmode none
attr source packetDropReasonIsNoInterfaceFound(packetDropped)
attr title "packet drop: no interface found, sum(packetBytes)"
scalar UAVNetwork_Multi.basicHosts[0].ipv4.ip packetDropNoRouteFound:count 0
attr interpolationmode none
attr source packetDropReasonIsNoRouteFound(packetDropped)
attr title "packet drop: no route found, count"
scalar UAVNetwork_Multi.basicHosts[0].ipv4.ip packetDropNoRouteFound:sum(packetBytes) 0
attr interpolationmode none
attr source packetDropReasonIsNoRouteFound(packetDropped)
attr title "packet drop: no route found, sum(packetBytes)"
scalar UAVNetwork_Multi.basicHosts[0].ipv4.ip packetDropUndefined:count 0
attr interpolationmode none
attr source packetDropReasonIsUndefined(packetDropped)
attr title "packet drop: undefined, count"
scalar UAVNetwork_Multi.basicHosts[0].ipv4.ip packetDropUndefined:sum(packetBytes) 0
attr interpolationmode none
attr source packetDropReasonIsUndefined(packetDropped)
attr title "packet drop: undefined, sum(packetBytes)"
scalar UAVNetwork_Multi.basicHosts[0].udp packetReceived:count 0
attr interpolationmode none
attr source packetReceived
attr title "packets received, count"
scalar UAVNetwork_Multi.basicHosts[0].udp packetReceived:sum(packetBytes) 0
attr interpolationmode none
attr source packetReceived
attr title "packets received, sum(packetBytes)"
scalar UAVNetwork_Multi.basicHosts[0].udp packetSent:count 0
attr interpolationmode none
attr source packetSent
attr title "packets sent, count"
scalar UAVNetwork_Multi.basicHosts[0].udp packetSent:sum(packetBytes) 0
attr interpolationmode none
attr source packetSent
attr title "packets sent, sum(packetBytes)"
scalar UAVNetwork_Multi.basicHosts[0].udp passedUpPk:count 0
attr interpolationmode none
attr source packetSentToUpper
attr title "packets passed up, count"
scalar UAVNetwork_Multi.basicHosts[0].udp droppedPkWrongPort:count 0
attr interpolationmode none
attr source packetDropReasonIsNoPortFound(packetDropped)
attr title "packets dropped (wrong port), count"
scalar UAVNetwork_Multi.basicHosts[0].udp droppedPkBadChecksum:count 0
attr interpolationmode none
attr source packetDropReasonIsIncorrectlyReceived(packetDropped)
attr title "packets dropped (checksum error), count"
scalar UAVNetwork_Multi.basicHosts[0].app[0] "Pings sent" 18
scalar UAVNetwork_Multi.basicHosts[0].app[0] "ping loss rate (%)" 66.666666666667
scalar UAVNetwork_Multi.basicHosts[0].app[0] "ping out-of-order rate (%)" 5.5555555555556
scalar UAVNetwork_Multi.basicHosts[0].app[0] pingRxSeq:count 7
attr interpolationmode none
attr title "ping rx seq, count"
scalar UAVNetwork_Multi.basicHosts[0].app[0] pingTxSeq:count 18
attr interpolationmode none
attr title "ping tx seq, count"
scalar UAVNetwork_Multi.basicHosts[0].app[0] numOutOfOrderArrivals:last 1
attr interpolationmode none
attr title "ping out-of-order arrivals, last"
scalar UAVNetwork_Multi.basicHosts[0].app[0] numLost:last 10
attr interpolationmode none
attr title "pings lost, last"
statistic UAVNetwork_Multi.basicHosts[0].app[0] rtt:histogram
field count 5
field mean 0.0055623339918
field stddev 0.0045428637135645
field min 0.002846078938
field max 0.01358882112
field sum 0.027811669959
field sqrsum 0.00023724824006175
attr interpolationmode none
attr title "ping round-trip time, histogram"
attr unit s
bin	-inf	0
bin	0	0
bin	0.0002	0
bin	0.0004	0
bin	0.0006	0
bin	0.0008	0
bin	0.001	0
bin	0.0012	0
bin	0.0014	0
bin	0.0016	0
bin	0.0018	0
bin	0.002	0
bin	0.0022	0
bin	0.0024	0
bin	0.0026	0
bin	0.0028	2
bin	0.003	0
bin	0.0032	0
bin	0.0034	0
bin	0.0036	0
bin	0.0038	1
bin	0.004	0
bin	0.0042	0
bin	0.0044	1
bin	0.0046	0
bin	0.0048	0
bin	0.005	0
bin	0.0052	0
bin	0.0054	0
bin	0.0056	0
bin	0.0058	0
bin	0.006	0
bin	0.0062	0
bin	0.0064	0
bin	0.0066	0
bin	0.0068	0
bin	0.007	0
bin	0.0072	0
bin	0.0074	0
bin	0.0076	0
bin	0.0078	0
bin	0.008	0
bin	0.0082	0
bin	0.0084	0
bin	0.0086	0
bin	0.0088	0
bin	0.009	0
bin	0.0092	0
bin	0.0094	0
bin	0.0096	0
bin	0.0098	0
bin	0.01	0
bin	0.0102	0
bin	0.0104	0
bin	0.0106	0
bin	0.0108	0
bin	0.011	0
bin	0.0112	0
bin	0.0114	0
bin	0.0116	0
bin	0.0118	0
bin	0.012	0
bin	0.0122	0
bin	0.0124	0
bin	0.0126	0
bin	0.0128	0
bin	0.013	0
bin	0.0132	0
bin	0.0134	1
bin	0.0136	0
bin	0.0138	0
bin	0.014	0
bin	0.0142	0
bin	0.0144	0
bin	0.0146	0
bin	0.0148	0
bin	0.015	0
bin	0.0152	0
bin	0.0154	0
bin	0.0156	0
bin	0.0158	0
bin	0.016	0
bin	0.0162	0
bin	0.0164	0
scalar UAVNetwork_Multi.basicHosts[1].lo[0].lo rcvdPkFromHl:count 2
attr interpolationmode none
attr source packetReceivedFromUpper
attr title "packets received from higher layer, count"
scalar UAVNetwork_Multi.basicHosts[1].lo[0].lo rcvdPkFromHl:sum(packetBytes) 168
attr interpolationmode none
attr source packetReceivedFromUpper
attr title "packets received from higher layer, sum(packetBytes)"
scalar UAVNetwork_Multi.basicHosts[1].lo[0].lo passedUpPk:count 2
attr interpolationmode none
attr source packetSentToUpper
attr title "packets passed to higher layer, count"
scalar UAVNetwork_Multi.basicHosts[1].lo[0].lo passedUpPk:sum(packetBytes) 168
attr interpolationmode none
attr source packetSentToUpper
attr title "packets passed to higher layer, sum(packetBytes)"
scalar UAVNetwork_Multi.basicHosts[1].wlan[0].mac numRetry 98
scalar UAVNetwork_Multi.basicHosts[1].wlan[0].mac numSentWithoutRetry 75
scalar UAVNetwork_Multi.basicHosts[1].wlan[0].mac numGivenUp 6
scalar UAVNetwork_Multi.basicHosts[1].wlan[0].mac numCollision 1657
scalar UAVNetwork_Multi.basicHosts[1].wlan[0].mac numSent 104
scalar UAVNetwork_Multi.basicHosts[1].wlan[0].mac numReceived 90
scalar UAVNetwork_Multi.basicHosts[1].wlan[0].mac numSentBroadcast 88
scalar UAVNetwork_Multi.basicHosts[1].wlan[0].mac numReceivedBroadcast 886
scalar UAVNetwork_Multi.basicHosts[1].wlan[0].mac packetDropIncorrectlyReceived:count 1657
attr interpolationmode none
attr source packetDropReasonIsIncorrectlyReceived(packetDropped)
attr title "packet drop: incorrectly received, count"
scalar UAVNetwork_Multi.basicHosts[1].wlan[0].mac packetDropIncorrectlyReceived:sum(packetBytes) 111529
attr interpolationmode none
attr source packetDropReasonIsIncorrectlyReceived(packetDropped)
attr title "packet drop: incorrectly received, sum(packetBytes)"
scalar UAVNetwork_Multi.basicHosts[1].wlan[0].mac packetDropNotAddressedToUs:count 2942
attr interpolationmode none
attr source packetDropReasonIsNotAddressedToUs(packetDropped)
attr title "packet drop: not addressed to us, count"
scalar UAVNetwork_Multi.basicHosts[1].wlan[0].mac packetDropNotAddressedToUs:sum(packetBytes) 226604
attr interpolationmode none
attr source packetDropReasonIsNotAddressedToUs(packetDropped)
attr title "packet drop: not addressed to us, sum(packetBytes)"
scalar UAVNetwork_Multi.basicHosts[1].wlan[0].mac packetDropQueueOverflow:count 0
attr interpolationmode none
attr source packetDropReasonIsQueueOverflow(packetDropped)
attr title "packet drop: queue overflow, count"
scalar UAVNetwork_Multi.basicHosts[1].wlan[0].mac packetDropQueueOverflow:sum(packetBytes) 0
attr interpolationmode none
attr source packetDropReasonIsQueueOverflow(packetDropped)
attr title "packet drop: queue overflow, sum(packetBytes)"
scalar UAVNetwork_Multi.basicHosts[1].wlan[0].mac packetDropRetryLimitReached:count 6
attr interpolationmode none
attr source packetDropReasonIsRetryLimitReached(packetDropped)
attr title "packet drop: retry limit reached, count"
scalar UAVNetwork_Multi.basicHosts[1].wlan[0].mac packetDropRetryLimitReached:sum(packetBytes) 408
attr interpolationmode none
attr source packetDropReasonIsRetryLimitReached(packetDropped)
attr title "packet drop: retry limit reached, sum(packetBytes)"
scalar UAVNetwork_Multi.basicHosts[1].wlan[0].mac linkBroken:count 6
attr interpolationmode none
attr source linkBroken
attr title "link break, count"
statistic UAVNetwork_Multi.basicHosts[1].wlan[0].radio minSnir:histogram
field count 7109
field mean 15.822103024332
field stddev 39.677580318674
field min 0.01853660730113
field max 810.98927175568
field sum 112479.33039998
field sqrsum 12969857.734344
attr source minimumSnir(packetSentToUpper)
attr title "Min SNIR, histogram"
bin	-inf	0
bin	0	5048
bin	10	937
bin	20	266
bin	30	265
bin	40	174
bin	50	89
bin	60	74
bin	70	38
bin	80	26
bin	90	22
bin	100	16
bin	110	8
bin	120	8
bin	130	9
bin	140	9
bin	150	12
bin	160	9
bin	170	6
bin	180	4
bin	190	4
bin	200	5
bin	210	8
bin	220	7
bin	230	2
bin	240	8
bin	250	7
bin	260	6
bin	270	3
bin	280	6
bin	290	3
bin	300	3
bin	310	4
bin	320	2
bin	330	2
bin	340	2
bin	350	0
bin	360	3
bin	370	2
bin	380	1
bin	390	1
bin	400	1
bin	410	0
bin	420	0
bin	430	2
bin	440	0
bin	450	0
bin	460	0
bin	470	1
bin	480	1
bin	490	0
bin	500	1
bin	510	0
bin	520	0
bin	530	0
bin	540	0
bin	550	0
bin	560	0
bin	570	0
bin	580	0
bin	590	1
bin	600	0
bin	610	0
bin	620	0
bin	630	0
bin	640	0
bin	650	1
bin	660	0
bin	670	1
bin	680	0
bin	690	0
bin	700	0
bin	710	0
bin	720	0
bin	730	0
bin	740	0
bin	750	0
bin	760	0
bin	770	0
bin	780	0
bin	790	0
bin	800	0
bin	810	1
bin	820	0
statistic UAVNetwork_Multi.basicHosts[1].wlan[0].radio packetErrorRate:histogram
field count 7109
field mean 0.03203619939541
field stddev 0.15376751365887
field min 0
field max 1
field sum 227.74534150197
field sqrsum 175.3608333813
attr source packetErrorRate(packetSentToUpper)
attr title "Packet error rate, histogram"
bin	-inf	0
bin	0	6636
bin	0.02	45
bin	0.04	22
bin	0.06	30
bin	0.08	18
bin	0.1	13
bin	0.12	10
bin	0.14	6
bin	0.16	18
bin	0.18	8
bin	0.2	10
bin	0.22	5
bin	0.24	8
bin	0.26	13
bin	0.28	3
bin	0.3	10
bin	0.32	10
bin	0.34	3
bin	0.36	6
bin	0.38	7
bin	0.4	4
bin	0.42	5
bin	0.44	3
bin	0.46	6
bin	0.48	7
bin	0.5	3
bin	0.52	3
bin	0.54	3
bin	0.56	5
bin	0.58	3
bin	0.6	3
bin	0.62	2
bin	0.64	5
bin	0.66	7
bin	0.68	6
bin	0.7	2
bin	0.72	3
bin	0.74	7
bin	0.76	5
bin	0.78	2
bin	0.8	3
bin	0.82	6
bin	0.84	5
bin	0.86	1
bin	0.88	3
bin	0.9	3
bin	0.92	9
bin	0.94	5
bin	0.96	10
bin	0.98	69
bin	1	30
bin	1.02	0
statistic UAVNetwork_Multi.basicHosts[1].wlan[0].radio bitErrorRate:histogram
field count 7109
field mean 0.00088910870548536
field stddev 0.010788844902285
field min 0
field max 0.27130272804398
field sum 6.3206737872954
field sqrsum 0.83298509719492
attr source bitErrorRate(packetSentToUpper)
attr title "Bit error rate, histogram"
bin	-inf	0
bin	0	6994
bin	0.00504	33
bin	0.01008	23
bin	0.01512	8
bin	0.02016	4
bin	0.0252	5
bin	0.03024	2
bin	0.03528	3
bin	0.04032	2
bin	0.04536	1
bin	0.0504	3
bin	0.05544	0
bin	0.06048	1
bin	0.06552	2
bin	0.07056	3
bin	0.0756	0
bin	0.08064	0
bin	0.08568	1
bin	0.09072	1
bin	0.09576	1
bin	0.1008	0
bin	0.10584	2
bin	0.11088	1
bin	0.11592	1
bin	0.12096	3
bin	0.126	0
bin	0.13104	0
bin	0.13608	1
bin	0.14112	0
bin	0.14616	2
bin	0.1512	1
bin	0.15624	0
bin	0.16128	0
bin	0.16632	1
bin	0.17136	0
bin	0.1764	0
bin	0.18144	0
bin	0.18648	0
bin	0.19152	1
bin	0.19656	0
bin	0.2016	1
bin	0.20664	1
bin	0.21168	1
bin	0.21672	0
bin	0.22176	2
bin	0.2268	0
bin	0.23184	0
bin	0.23688	1
bin	0.24192	1
bin	0.24696	0
bin	0.252	0
bin	0.25704	1
bin	0.26208	0
bin	0.26712	1
bin	0.27216	0
statistic UAVNetwork_Multi.basicHosts[1].wlan[0].radio symbolErrorRate:histogram
field count 7109
field mean 0.00088910870548536
field stddev 0.010788844902285
field min 0
field max 0.27130272804398
field sum 6.3206737872954
field sqrsum 0.83298509719492
attr source symbolErrorRate(packetSentToUpper)
attr title "Symbol error rate, histogram"
bin	-inf	0
bin	0	6994
bin	0.00504	33
bin	0.01008	23
bin	0.01512	8
bin	0.02016	4
bin	0.0252	5
bin	0.03024	2
bin	0.03528	3
bin	0.04032	2
bin	0.04536	1
bin	0.0504	3
bin	0.05544	0
bin	0.06048	1
bin	0.06552	2
bin	0.07056	3
bin	0.0756	0
bin	0.08064	0
bin	0.08568	1
bin	0.09072	1
bin	0.09576	1
bin	0.1008	0
bin	0.10584	2
bin	0.11088	1
bin	0.11592	1
bin	0.12096	3
bin	0.126	0
bin	0.13104	0
bin	0.13608	1
bin	0.14112	0
bin	0.14616	2
bin	0.1512	1
bin	0.15624	0
bin	0.16128	0
bin	0.16632	1
bin	0.17136	0
bin	0.1764	0
bin	0.18144	0
bin	0.18648	0
bin	0.19152	1
bin	0.19656	0
bin	0.2016	1
bin	0.20664	1
bin	0.21168	1
bin	0.21672	0
bin	0.22176	2
bin	0.2268	0
bin	0.23184	0
bin	0.23688	1
bin	0.24192	1
bin	0.24696	0
bin	0.252	0
bin	0.25704	1
bin	0.26208	0
bin	0.26712	1
bin	0.27216	0
scalar UAVNetwork_Multi.basicHosts[1].wlan[0].radio transmissionState:count 1544
attr interpolationmode sample-hold
attr source transmissionStateChanged
attr title "Radio transmission state, count"
scalar UAVNetwork_Multi.basicHosts[1].wlan[0].radio receptionState:count 18140
attr interpolationmode sample-hold
attr source receptionStateChanged
attr title "Radio reception state, count"
scalar UAVNetwork_Multi.basicHosts[1].wlan[0].radio radioMode:count 775
attr interpolationmode sample-hold
attr source radioModeChanged
attr title "Radio mode, count"
scalar UAVNetwork_Multi.basicHosts[1].ipv4.ip packetDropAddressResolutionFailed:count 0
attr interpolationmode none
attr source packetDropReasonIsAddressResolutionFailed(packetDropped)
attr title "packet drop: address resolution failed, count"
scalar UAVNetwork_Multi.basicHosts[1].ipv4.ip packetDropAddressResolutionFailed:sum(packetBytes) 0
attr interpolationmode none
attr source packetDropReasonIsAddressResolutionFailed(packetDropped)
attr title "packet drop: address resolution failed, sum(packetBytes)"
scalar UAVNetwork_Multi.basicHosts[1].ipv4.ip packetDropHopLimitReached:count 0
attr interpolationmode none
attr source packetDropReasonIsHopLimitReached(packetDropped)
attr title "packet drop: hop limit reached, count"
scalar UAVNetwork_Multi.basicHosts[1].ipv4.ip packetDropHopLimitReached:sum(packetBytes) 0
attr interpolationmode none
attr source packetDropReasonIsHopLimitReached(packetDropped)
attr title "packet drop: hop limit reached, sum(packetBytes)"
scalar UAVNetwork_Multi.basicHosts[1].ipv4.ip packetDropForwardingDisabled:count 26
attr interpolationmode none
attr source packetDropReasonIsForwardingDisabled(packetDropped)
attr title "packet drop: forwarding disabled, count"
scalar UAVNetwork_Multi.basicHosts[1].ipv4.ip packetDropForwardingDisabled:sum(packetBytes) 2112
attr interpolationmode none
attr source packetDropReasonIsForwardingDisabled(packetDropped)
attr title "packet drop: forwarding disabled, sum(packetBytes)"
scalar UAVNetwork_Multi.basicHosts[1].ipv4.ip packetDropNoInterfaceFound:count 0
attr interpolationmode none
attr source packetDropReasonIsNoInterfaceFound(packetDropped)
attr title "packet drop: no interface found, count"
scalar UAVNetwork_Multi.basicHosts[1].ipv4.ip packetDropNoInterfaceFound:sum(packetBytes) 0
attr interpolationmode none
attr source packetDropReasonIsNoInterfaceFound(packetDropped)
attr title "packet drop: no interface found, sum(packetBytes)"
scalar UAVNetwork_Multi.basicHosts[1].ipv4.ip packetDropNoRouteFound:count 0
attr interpolationmode none
attr source packetDropReasonIsNoRouteFound(packetDropped)
attr title "packet drop: no route found, count"
scalar UAVNetwork_Multi.basicHosts[1].ipv4.ip packetDropNoRouteFound:sum(packetBytes) 0
attr interpolationmode none
attr source packetDropReasonIsNoRouteFound(packetDropped)
attr title "packet drop: no route found, sum(packetBytes)"
scalar UAVNetwork_Multi.basicHosts[1].ipv4.ip packetDropUndefined:count 0
attr interpolationmode none
attr source packetDropReasonIsUndefined(packetDropped)
attr title "packet drop: undefined, count"
scalar UAVNetwork_Multi.basicHosts[1].ipv4.ip packetDropUndefined:sum(packetBytes) 0
attr interpolationmode none
attr source packetDropReasonIsUndefined(packetDropped)
attr title "packet drop: undefined, sum(packetBytes)"
scalar UAVNetwork_Multi.basicHosts[1].udp packetReceived:count 0
attr interpolationmode none
attr source packetReceived
attr title "packets received, count"
scalar UAVNetwork_Multi.basicHosts[1].udp packetReceived:sum(packetBytes) 0
attr interpolationmode none
attr source packetReceived
attr title "packets received, sum(packetBytes)"
scalar UAVNetwork_Multi.basicHosts[1].udp packetSent:count 0
attr interpolationmode none
attr source packetSent
attr title "packets sent, count"
scalar UAVNetwork_Multi.basicHosts[1].udp packetSent:sum(packetBytes) 0
attr interpolationmode none
attr source packetSent
attr title "packets sent, sum(packetBytes)"
scalar UAVNetwork_Multi.basicHosts[1].udp passedUpPk:count 0
attr interpolationmode none
attr source packetSentToUpper
attr title "packets passed up, count"
scalar UAVNetwork_Multi.basicHosts[1].udp droppedPkWrongPort:count 0
attr interpolationmode none
attr source packetDropReasonIsNoPortFound(packetDropped)
attr title "packets dropped (wrong port), count"
scalar UAVNetwork_Multi.basicHosts[1].udp droppedPkBadChecksum:count 0
attr interpolationmode none
attr source packetDropReasonIsIncorrectlyReceived(packetDropped)
attr title "packets dropped (checksum error), count"
scalar UAVNetwork_Multi.basicHosts[1].app[0] "Pings sent" 17
scalar UAVNetwork_Multi.basicHosts[1].app[0] "ping loss rate (%)" 47.058823529412
scalar UAVNetwork_Multi.basicHosts[1].app[0] "ping out-of-order rate (%)" 0
scalar UAVNetwork_Multi.basicHosts[1].app[0] pingRxSeq:count 9
attr interpolationmode none
attr title "ping rx seq, count"
scalar UAVNetwork_Multi.basicHosts[1].app[0] pingTxSeq:count 17
attr interpolationmode none
attr title "ping tx seq, count"
scalar UAVNetwork_Multi.basicHosts[1].app[0] numOutOfOrderArrivals:last nan
attr interpolationmode none
attr title "ping out-of-order arrivals, last"
scalar UAVNetwork_Multi.basicHosts[1].app[0] numLost:last 7
attr interpolationmode none
attr title "pings lost, last"
statistic UAVNetwork_Multi.basicHosts[1].app[0] rtt:histogram
field count 8
field mean 0.006083016389625
field stddev 0.0060016170091853
field min 0.002385882302
field max 0.019880527044
field sum 0.048664131117
field sqrsum 0.00054816055424616
attr interpolationmode none
attr title "ping round-trip time, histogram"
attr unit s
bin	-inf	0
bin	0	0
bin	0.0005	0
bin	0.001	0
bin	0.0015	0
bin	0.002	2
bin	0.0025	1
bin	0.003	1
bin	0.0035	1
bin	0.004	0
bin	0.0045	0
bin	0.005	1
bin	0.0055	0
bin	0.006	0
bin	0.0065	0
bin	0.007	0
bin	0.0075	0
bin	0.008	0
bin	0.0085	0
bin	0.009	1
bin	0.0095	0
bin	0.01	0
bin	0.0105	0
bin	0.011	0
bin	0.0115	0
bin	0.012	0
bin	0.0125	0
bin	0.013	0
bin	0.0135	0
bin	0.014	0
bin	0.0145	0
bin	0.015	0
bin	0.0155	0
bin	0.016	0
bin	0.0165	0
bin	0.017	0
bin	0.0175	0
bin	0.018	0
bin	0.0185	0
bin	0.019	0
bin	0.0195	1
bin	0.02	0
bin	0.0205	0
bin	0.021	0
bin	0.0215	0
bin	0.022	0
bin	0.0225	0
bin	0.023	0
bin	0.0235	0
bin	0.024	0
bin	0.0245	0
scalar UAVNetwork_Multi.basicHosts[2].lo[0].lo rcvdPkFromHl:count 2
attr interpolationmode none
attr source packetReceivedFromUpper
attr title "packets received from higher layer, count"
scalar UAVNetwork_Multi.basicHosts[2].lo[0].lo rcvdPkFromHl:sum(packetBytes) 168
attr interpolationmode none
attr source packetReceivedFromUpper
attr title "packets received from higher layer, sum(packetBytes)"
scalar UAVNetwork_Multi.basicHosts[2].lo[0].lo passedUpPk:count 2
attr interpolationmode none
attr source packetSentToUpper
attr title "packets passed to higher layer, count"
scalar UAVNetwork_Multi.basicHosts[2].lo[0].lo passedUpPk:sum(packetBytes) 168
attr interpolationmode none
attr source packetSentToUpper
attr title "packets passed to higher layer, sum(packetBytes)"
scalar UAVNetwork_Multi.basicHosts[2].wlan[0].mac numRetry 176
scalar UAVNetwork_Multi.basicHosts[2].wlan[0].mac numSentWithoutRetry 62
scalar UAVNetwork_Multi.basicHosts[2].wlan[0].mac numGivenUp 13
scalar UAVNetwork_Multi.basicHosts[2].wlan[0].mac numCollision 1279
scalar UAVNetwork_Multi.basicHosts[2].wlan[0].mac numSent 92
scalar UAVNetwork_Multi.basicHosts[2].wlan[0].mac numReceived 101
scalar UAVNetwork_Multi.basicHosts[2].wlan[0].mac numSentBroadcast 98
scalar UAVNetwork_Multi.basicHosts[2].wlan[0].mac numReceivedBroadcast 909
scalar UAVNetwork_Multi.basicHosts[2].wlan[0].mac packetDropIncorrectlyReceived:count 1279
attr interpolationmode none
attr source packetDropReasonIsIncorrectlyReceived(packetDropped)
attr title "packet drop: incorrectly received, count"
scalar UAVNetwork_Multi.basicHosts[2].wlan[0].mac packetDropIncorrectlyReceived:sum(packetBytes) 87473
attr interpolationmode none
attr source packetDropReasonIsIncorrectlyReceived(packetDropped)
attr title "packet drop: incorrectly received, sum(packetBytes)"
scalar UAVNetwork_Multi.basicHosts[2].wlan[0].mac packetDropNotAddressedToUs:count 2909
attr interpolationmode none
attr source packetDropReasonIsNotAddressedToUs(packetDropped)
attr title "packet drop: not addressed to us, count"
scalar UAVNetwork_Multi.basicHosts[2].wlan[0].mac packetDropNotAddressedToUs:sum(packetBytes) 225116
attr interpolationmode none
attr source packetDropReasonIsNotAddressedToUs(packetDropped)
attr title "packet drop: not addressed to us, sum(packetBytes)"
scalar UAVNetwork_Multi.basicHosts[2].wlan[0].mac packetDropQueueOverflow:count 0
attr interpolationmode none
attr source packetDropReasonIsQueueOverflow(packetDropped)
attr title "packet drop: queue overflow, count"
scalar UAVNetwork_Multi.basicHosts[2].wlan[0].mac packetDropQueueOverflow:sum(packetBytes) 0
attr interpolationmode none
attr source packetDropReasonIsQueueOverflow(packetDropped)
attr title "packet drop: queue overflow, sum(packetBytes)"
scalar UAVNetwork_Multi.basicHosts[2].wlan[0].mac packetDropRetryLimitReached:count 13
attr interpolationmode none
attr source packetDropReasonIsRetryLimitReached(packetDropped)
attr title "packet drop: retry limit reached, count"
scalar UAVNetwork_Multi.basicHosts[2].wlan[0].mac packetDropRetryLimitReached:sum(packetBytes) 884
attr interpolationmode none
attr source packetDropReasonIsRetryLimitReached(packetDropped)
attr title "packet drop: retry limit reached, sum(packetBytes)"
scalar UAVNetwork_Multi.basicHosts[2].wlan[0].mac linkBroken:count 13
attr interpolationmode none
attr source linkBroken
attr title "link break, count"
statistic UAVNetwork_Multi.basicHosts[2].wlan[0].radio minSnir:histogram
field count 6708
field mean 14.315208475843
field stddev 22.391845944083
field min 0.037491149102981
field max 193.75834468807
field sum 96026.418455953
field sqrsum 4737492.8867889
attr source minimumSnir(packetSentToUpper)
attr title "Min SNIR, histogram"
bin	-inf	0
bin	0	1422
bin	3	1672
bin	6	980
bin	9	643
bin	12	432
bin	15	244
bin	18	187
bin	21	148
bin	24	123
bin	27	93
bin	30	77
bin	33	67
bin	36	52
bin	39	36
bin	42	42
bin	45	29
bin	48	25
bin	51	32
bin	54	26
bin	57	15
bin	60	18
bin	63	28
bin	66	22
bin	69	23
bin	72	31
bin	75	17
bin	78	11
bin	81	20
bin	84	14
bin	87	14
bin	90	11
bin	93	11
bin	96	15
bin	99	15
bin	102	14
bin	105	10
bin	108	6
bin	111	7
bin	114	8
bin	117	12
bin	120	4
bin	123	5
bin	126	4
bin	129	7
bin	132	2
bin	135	4
bin	138	4
bin	141	5
bin	144	4
bin	147	2
bin	150	2
bin	153	2
bin	156	3
bin	159	3
bin	162	1
bin	165	0
bin	168	0
bin	171	0
bin	174	0
bin	177	0
bin	180	1
bin	183	0
bin	186	0
bin	189	0
bin	192	3
bin	195	0
statistic UAVNetwork_Multi.basicHosts[2].wlan[0].radio packetErrorRate:histogram
field count 6708
field mean 0.028277618879677
field stddev 0.14660275871091
field min 0
field max 1
field sum 189.68626744487
field sqrsum 149.5131939326
attr source packetErrorRate(packetSentToUpper)
attr title "Packet error rate, histogram"
bin	-inf	0
bin	0	6309
bin	0.02	40
bin	0.04	20
bin	0.06	22
bin	0.08	16
bin	0.1	16
bin	0.12	15
bin	0.14	6
bin	0.16	14
bin	0.18	6
bin	0.2	5
bin	0.22	10
bin	0.24	3
bin	0.26	11
bin	0.28	8
bin	0.3	2
bin	0.32	8
bin	0.34	7
bin	0.36	3
bin	0.38	4
bin	0.4	7
bin	0.42	1
bin	0.44	3
bin	0.46	4
bin	0.48	1
bin	0.5	3
bin	0.52	3
bin	0.54	2
bin	0.56	2
bin	0.58	2
bin	0.6	3
bin	0.62	3
bin	0.64	1
bin	0.66	1
bin	0.68	3
bin	0.7	4
bin	0.72	1
bin	0.74	2
bin	0.76	1
bin	0.78	4
bin	0.8	2
bin	0.82	2
bin	0.84	3
bin	0.86	5
bin	0.88	5
bin	0.9	4
bin	0.92	5
bin	0.94	11
bin	0.96	5
bin	0.98	73
bin	1	17
bin	1.02	0
bin	1.04	0
bin	1.06	0
bin	1.08	0
bin	1.1	0
bin	1.12	0
bin	1.14	0
bin	1.16	0
bin	1.18	0
bin	1.2	0
bin	1.22	0
bin	1.24	0
bin	1.26	0
statistic UAVNetwork_Multi.basicHosts[2].wlan[0].radio bitErrorRate:histogram
field count 6708
field mean 0.00064495062773255
field stddev 0.0071802910617105
field min 0
field max 0.1932661407417
field sum 4.3263288108299
field sqrsum 0.34858024873734
attr source bitErrorRate(packetSentToUpper)
attr title "Bit error rate, histogram"
bin	-inf	0
bin	0	6599
bin	0.005	26
bin	0.01	16
bin	0.015	10
bin	0.02	10
bin	0.025	6
bin	0.03	3
bin	0.035	6
bin	0.04	5
bin	0.045	2
bin	0.05	4
bin	0.055	4
bin	0.06	0
bin	0.065	2
bin	0.07	0
bin	0.075	1
bin	0.08	1
bin	0.085	2
bin	0.09	0
bin	0.095	1
bin	0.1	0
bin	0.105	1
bin	0.11	2
bin	0.115	0
bin	0.12	1
bin	0.125	0
bin	0.13	0
bin	0.135	1
bin	0.14	0
bin	0.145	0
bin	0.15	0
bin	0.155	0
bin	0.16	0
bin	0.165	1
bin	0.17	1
bin	0.175	0
bin	0.18	1
bin	0.185	0
bin	0.19	2
bin	0.195	0
bin	0.2	0
bin	0.205	0
bin	0.21	0
bin	0.215	0
bin	0.22	0
bin	0.225	0
bin	0.23	0
bin	0.235	0
bin	0.24	0
statistic UAVNetwork_Multi.basicHosts[2].wlan[0].radio symbolErrorRate:histogram
field count 6708
field mean 0.00064495062773255
field stddev 0.0071802910617105
field min 0
field max 0.1932661407417
field sum 4.3263288108299
field sqrsum 0.34858024873734
attr source symbolErrorRate(packetSentToUpper)
attr title "Symbol error rate, histogram"
bin	-inf	0
bin	0	6599
bin	0.005	26
bin	0.01	16
bin	0.015	10
bin	0.02	10
bin	0.025	6
bin	0.03	3
bin	0.035	6
bin	0.04	5
bin	0.045	2
bin	0.05	4
bin	0.055	4
bin	0.06	0
bin	0.065	2
bin	0.07	0
bin	0.075	1
bin	0.08	1
bin	0.085	2
bin	0.09	0
bin	0.095	1
bin	0.1	0
bin	0.105	1
bin	0.11	2
bin	0.115	0
bin	0.12	1
bin	0.125	0
bin	0.13	0
bin	0.135	1
bin	0.14	0
bin	0.145	0
bin	0.15	0
bin	0.155	0
bin	0.16	0
bin	0.165	1
bin	0.17	1
bin	0.175	0
bin	0.18	1
bin	0.185	0
bin	0.19	2
bin	0.195	0
bin	0.2	0
bin	0.205	0
bin	0.21	0
bin	0.215	0
bin	0.22	0
bin	0.225	0
bin	0.23	0
bin	0.235	0
bin	0.24	0
scalar UAVNetwork_Multi.basicHosts[2].wlan[0].radio transmissionState:count 1920
attr interpolationmode sample-hold
attr source transmissionStateChanged
attr title "Radio transmission state, count"
scalar UAVNetwork_Multi.basicHosts[2].wlan[0].radio receptionState:count 17671
attr interpolationmode sample-hold
attr source receptionStateChanged
attr title "Radio reception state, count"
scalar UAVNetwork_Multi.basicHosts[2].wlan[0].radio radioMode:count 963
attr interpolationmode sample-hold
attr source radioModeChanged
attr title "Radio mode, count"
scalar UAVNetwork_Multi.basicHosts[2].ipv4.ip packetDropAddressResolutionFailed:count 0
attr interpolationmode none
attr source packetDropReasonIsAddressResolutionFailed(packetDropped)
attr title "packet drop: address resolution failed, count"
scalar UAVNetwork_Multi.basicHosts[2].ipv4.ip packetDropAddressResolutionFailed:sum(packetBytes) 0
attr interpolationmode none
attr source packetDropReasonIsAddressResolutionFailed(packetDropped)
attr title "packet drop: address resolution failed, sum(packetBytes)"
scalar UAVNetwork_Multi.basicHosts[2].ipv4.ip packetDropHopLimitReached:count 0
attr interpolationmode none
attr source packetDropReasonIsHopLimitReached(packetDropped)
attr title "packet drop: hop limit reached, count"
scalar UAVNetwork_Multi.basicHosts[2].ipv4.ip packetDropHopLimitReached:sum(packetBytes) 0
attr interpolationmode none
attr source packetDropReasonIsHopLimitReached(packetDropped)
attr title "packet drop: hop limit reached, sum(packetBytes)"
scalar UAVNetwork_Multi.basicHosts[2].ipv4.ip packetDropForwardingDisabled:count 12
attr interpolationmode none
attr source packetDropReasonIsForwardingDisabled(packetDropped)
attr title "packet drop: forwarding disabled, count"
scalar UAVNetwork_Multi.basicHosts[2].ipv4.ip packetDropForwardingDisabled:sum(packetBytes) 936
attr interpolationmode none
attr source packetDropReasonIsForwardingDisabled(packetDropped)
attr title "packet drop: forwarding disabled, sum(packetBytes)"
scalar UAVNetwork_Multi.basicHosts[2].ipv4.ip packetDropNoInterfaceFound:count 0
attr interpolationmode none
attr source packetDropReasonIsNoInterfaceFound(packetDropped)
attr title "packet drop: no interface found, count"
scalar UAVNetwork_Multi.basicHosts[2].ipv4.ip packetDropNoInterfaceFound:sum(packetBytes) 0
attr interpolationmode none
attr source packetDropReasonIsNoInterfaceFound(packetDropped)
attr title "packet drop: no interface found, sum(packetBytes)"
scalar UAVNetwork_Multi.basicHosts[2].ipv4.ip packetDropNoRouteFound:count 0
attr interpolationmode none
attr source packetDropReasonIsNoRouteFound(packetDropped)
attr title "packet drop: no route found, count"
scalar UAVNetwork_Multi.basicHosts[2].ipv4.ip packetDropNoRouteFound:sum(packetBytes) 0
attr interpolationmode none
attr source packetDropReasonIsNoRouteFound(packetDropped)
attr title "packet drop: no route found, sum(packetBytes)"
scalar UAVNetwork_Multi.basicHosts[2].ipv4.ip packetDropUndefined:count 0
attr interpolationmode none
attr source packetDropReasonIsUndefined(packetDropped)
attr title "packet drop: undefined, count"
scalar UAVNetwork_Multi.basicHosts[2].ipv4.ip packetDropUndefined:sum(packetBytes) 0
attr interpolationmode none
attr source packetDropReasonIsUndefined(packetDropped)
attr title "packet drop: undefined, sum(packetBytes)"
scalar UAVNetwork_Multi.basicHosts[2].udp packetReceived:count 0
attr interpolationmode none
attr source packetReceived
attr title "packets received, count"
scalar UAVNetwork_Multi.basicHosts[2].udp packetReceived:sum(packetBytes) 0
attr interpolationmode none
attr source packetReceived
attr title "packets received, sum(packetBytes)"
scalar UAVNetwork_Multi.basicHosts[2].udp packetSent:count 0
attr interpolationmode none
attr source packetSent
attr title "packets sent, count"
scalar UAVNetwork_Multi.basicHosts[2].udp packetSent:sum(packetBytes) 0
attr interpolationmode none
attr source packetSent
attr title "packets sent, sum(packetBytes)"
scalar UAVNetwork_Multi.basicHosts[2].udp passedUpPk:count 0
attr interpolationmode none
attr source packetSentToUpper
attr title "packets passed up, count"
scalar UAVNetwork_Multi.basicHosts[2].udp droppedPkWrongPort:count 0
attr interpolationmode none
attr source packetDropReasonIsNoPortFound(packetDropped)
attr title "packets dropped (wrong port), count"
scalar UAVNetwork_Multi.basicHosts[2].udp droppedPkBadChecksum:count 0
attr interpolationmode none
attr source packetDropReasonIsIncorrectlyReceived(packetDropped)
attr title "packets dropped (checksum error), count"
scalar UAVNetwork_Multi.basicHosts[2].app[0] "Pings sent" 17
scalar UAVNetwork_Multi.basicHosts[2].app[0] "ping loss rate (%)" 41.176470588235
scalar UAVNetwork_Multi.basicHosts[2].app[0] "ping out-of-order rate (%)" 0
scalar UAVNetwork_Multi.basicHosts[2].app[0] pingRxSeq:count 10
attr interpolationmode none
attr title "ping rx seq, count"
scalar UAVNetwork_Multi.basicHosts[2].app[0] pingTxSeq:count 17
attr interpolationmode none
attr title "ping tx seq, count"
scalar UAVNetwork_Multi.basicHosts[2].app[0] numOutOfOrderArrivals:last nan
attr interpolationmode none
attr title "ping out-of-order arrivals, last"
scalar UAVNetwork_Multi.basicHosts[2].app[0] numLost:last 7
attr interpolationmode none
attr title "pings lost, last"
statistic UAVNetwork_Multi.basicHosts[2].app[0] rtt:histogram
field count 9
field mean 0.033163264551556
field stddev 0.04692211101559
field min 0.002465816221
field max 0.138410103369
field sum 0.298469380964
field sqrsum 0.027511695058723
attr interpolationmode none
attr title "ping round-trip time, histogram"
attr unit s
bin	-inf	0
bin	0	0
bin	0.002	3
bin	0.004	2
bin	0.006	0
bin	0.008	0
bin	0.01	0
bin	0.012	0
bin	0.014	0
bin	0.016	0
bin	0.018	0
bin	0.02	1
bin	0.022	0
bin	0.024	0
bin	0.026	0
bin	0.028	0
bin	0.03	0
bin	0.032	0
bin	0.034	0
bin	0.036	0
bin	0.038	0
bin	0.04	0
bin	0.042	0
bin	0.044	0
bin	0.046	1
bin	0.048	0
bin	0.05	0
bin	0.052	0
bin	0.054	0
bin	0.056	0
bin	0.058	0
bin	0.06	0
bin	0.062	0
bin	0.064	0
bin	0.066	0
bin	0.068	0
bin	0.07	0
bin	0.072	0
bin	0.074	1
bin	0.076	0
bin	0.078	0
bin	0.08	0
bin	0.082	0
bin	0.084	0
bin	0.086	0
bin	0.088	0
bin	0.09	0
bin	0.092	0
bin	0.094	0
bin	0.096	0
bin	0.098	0
bin	0.1	0
bin	0.102	0
bin	0.104	0
bin	0.106	0
bin	0.108	0
bin	0.11	0
bin	0.112	0
bin	0.114	0
bin	0.116	0
bin	0.118	0
bin	0.12	0
bin	0.122	0
bin	0.124	0
bin	0.126	0
bin	0.128	0
bin	0.13	0
bin	0.132	0
bin	0.134	0
bin	0.136	0
bin	0.138	1
bin	0.14	0
bin	0.142	0
bin	0.144	0
bin	0.146	0
bin	0.148	0
bin	0.15	0
bin	0.152	0
bin	0.154	0
bin	0.156	0
bin	0.158	0
bin	0.16	0
bin	0.162	0
bin	0.164	0
bin	0.166	0
bin	0.168	0
bin	0.17	0
bin	0.172	0
bin	0.174	0
scalar UAVNetwork_Multi.basicHosts[3].lo[0].lo rcvdPkFromHl:count 2
attr interpolationmode none
attr source packetReceivedFromUpper
attr title "packets received from higher layer, count"
scalar UAVNetwork_Multi.basicHosts[3].lo[0].lo rcvdPkFromHl:sum(packetBytes) 168
attr interpolationmode none
attr source packetReceivedFromUpper
attr title "packets received from higher layer, sum(packetBytes)"
scalar UAVNetwork_Multi.basicHosts[3].lo[0].lo passedUpPk:count 2
attr interpolationmode none
attr source packetSentToUpper
attr title "packets passed to higher layer, count"
scalar UAVNetwork_Multi.basicHosts[3].lo[0].lo passedUpPk:sum(packetBytes) 168
attr interpolationmode none
attr source packetSentToUpper
attr title "packets passed to higher layer, sum(packetBytes)"
scalar UAVNetwork_Multi.basicHosts[3].wlan[0].mac numRetry 106
scalar UAVNetwork_Multi.basicHosts[3].wlan[0].mac numSentWithoutRetry 44
scalar UAVNetwork_Multi.basicHosts[3].wlan[0].mac numGivenUp 8
scalar UAVNetwork_Multi.basicHosts[3].wlan[0].mac numCollision 530
scalar UAVNetwork_Multi.basicHosts[3].wlan[0].mac numSent 65
scalar UAVNetwork_Multi.basicHosts[3].wlan[0].mac numReceived 50
scalar UAVNetwork_Multi.basicHosts[3].wlan[0].mac numSentBroadcast 80
scalar UAVNetwork_Multi.basicHosts[3].wlan[0].mac numReceivedBroadcast 566
scalar UAVNetwork_Multi.basicHosts[3].wlan[0].mac packetDropIncorrectlyReceived:count 530
attr interpolationmode none
attr source packetDropReasonIsIncorrectlyReceived(packetDropped)
attr title "packet drop: incorrectly received, count"
scalar UAVNetwork_Multi.basicHosts[3].wlan[0].mac packetDropIncorrectlyReceived:sum(packetBytes) 37978
attr interpolationmode none
attr source packetDropReasonIsIncorrectlyReceived(packetDropped)
attr title "packet drop: incorrectly received, sum(packetBytes)"
scalar UAVNetwork_Multi.basicHosts[3].wlan[0].mac packetDropNotAddressedToUs:count 1749
attr interpolationmode none
attr source packetDropReasonIsNotAddressedToUs(packetDropped)
attr title "packet drop: not addressed to us, count"
scalar UAVNetwork_Multi.basicHosts[3].wlan[0].mac packetDropNotAddressedToUs:sum(packetBytes) 135492
attr interpolationmode none
attr source packetDropReasonIsNotAddressedToUs(packetDropped)
attr title "packet drop: not addressed to us, sum(packetBytes)"
scalar UAVNetwork_Multi.basicHosts[3].wlan[0].mac packetDropQueueOverflow:count 0
attr interpolationmode none
attr source packetDropReasonIsQueueOverflow(packetDropped)
attr title "packet drop: queue overflow, count"
scalar UAVNetwork_Multi.basicHosts[3].wlan[0].mac packetDropQueueOverflow:sum(packetBytes) 0
attr interpolationmode none
attr source packetDropReasonIsQueueOverflow(packetDropped)
attr title "packet drop: queue overflow, sum(packetBytes)"
scalar UAVNetwork_Multi.basicHosts[3].wlan[0].mac packetDropRetryLimitReached:count 8
attr interpolationmode none
attr source packetDropReasonIsRetryLimitReached(packetDropped)
attr title "packet drop: retry limit reached, count"
scalar UAVNetwork_Multi.basicHosts[3].wlan[0].mac packetDropRetryLimitReached:sum(packetBytes) 544
attr interpolationmode none
attr source packetDropReasonIsRetryLimitReached(packetDropped)
attr title "packet drop: retry limit reached, sum(packetBytes)"
scalar UAVNetwork_Multi.basicHosts[3].wlan[0].mac linkBroken:count 8
attr interpolationmode none
attr source linkBroken
attr title "link break, count"
statistic UAVNetwork_Multi.basicHosts[3].wlan[0].radio minSnir:histogram
field count 3649
field mean 8.2867577599057
field stddev 8.0694317838653
field min 0.11574458370637
field max 77.397309125899
field sum 30238.379065896
field sqrsum 488120.30291042
attr source minimumSnir(packetSentToUpper)
attr title "Min SNIR, histogram"
bin	-inf	0
bin	0	267
bin	1.5	371
bin	3	827
bin	4.5	523
bin	6	338
bin	7.5	216
bin	9	189
bin	10.5	141
bin	12	121
bin	13.5	105
bin	15	97
bin	16.5	91
bin	18	69
bin	19.5	55
bin	21	43
bin	22.5	23
bin	24	30
bin	25.5	21
bin	27	22
bin	28.5	17
bin	30	10
bin	31.5	7
bin	33	6
bin	34.5	8
bin	36	5
bin	37.5	3
bin	39	6
bin	40.5	4
bin	42	6
bin	43.5	3
bin	45	5
bin	46.5	0
bin	48	2
bin	49.5	3
bin	51	2
bin	52.5	0
bin	54	2
bin	55.5	1
bin	57	2
bin	58.5	1
bin	60	1
bin	61.5	0
bin	63	1
bin	64.5	0
bin	66	1
bin	67.5	1
bin	69	0
bin	70.5	0
bin	72	0
bin	73.5	2
bin	75	0
bin	76.5	1
bin	78	0
statistic UAVNetwork_Multi.basicHosts[3].wlan[0].radio packetErrorRate:histogram
field count 3649
field mean 0.012584511880198
field stddev 0.099510726327434
field min 0
field max 1
field sum 45.920883850843
field sqrsum 36.701791126941
attr source packetErrorRate(packetSentToUpper)
attr title "Packet error rate, histogram"
bin	-inf	0
bin	0	3557
bin	0.02	10
bin	0.04	3
bin	0.06	3
bin	0.08	5
bin	0.1	5
bin	0.12	2
bin	0.14	4
bin	0.16	1
bin	0.18	2
bin	0.2	1
bin	0.22	3
bin	0.24	2
bin	0.26	1
bin	0.28	0
bin	0.3	1
bin	0.32	0
bin	0.34	1
bin	0.36	1
bin	0.38	1
bin	0.4	2
bin	0.42	0
bin	0.44	0
bin	0.46	1
bin	0.48	3
bin	0.5	0
bin	0.52	0
bin	0.54	1
bin	0.56	0
bin	0.58	1
bin	0.6	0
bin	0.62	1
bin	0.64	0
bin	0.66	1
bin	0.68	0
bin	0.7	1
bin	0.72	0
bin	0.74	0
bin	0.76	0
bin	0.78	0
bin	0.8	1
bin	0.82	1
bin	0.84	3
bin	0.86	1
bin	0.88	0
bin	0.9	2
bin	0.92	1
bin	0.94	4
bin	0.96	2
bin	0.98	19
bin	1	1
bin	1.02	0
statistic UAVNetwork_Multi.basicHosts[3].wlan[0].radio bitErrorRate:histogram
field count 3649
field mean 0.00015111409431743
field stddev 0.0020146550674747
field min 0
field max 0.0640701136126
field sum 0.55141533016429
field sqrsum 0.014889956857419
attr source bitErrorRate(packetSentToUpper)
attr title "Bit error rate, histogram"
bin	-inf	0
bin	0	3604
bin	0.000864	6
bin	0.001728	3
bin	0.002592	6
bin	0.003456	4
bin	0.00432	3
bin	0.005184	1
bin	0.006048	2
bin	0.006912	2
bin	0.007776	1
bin	0.00864	2
bin	0.009504	0
bin	0.010368	1
bin	0.011232	1
bin	0.012096	0
bin	0.01296	1
bin	0.013824	0
bin	0.014688	0
bin	0.015552	1
bin	0.016416	0
bin	0.01728	0
bin	0.018144	0
bin	0.019008	0
bin	0.019872	0
bin	0.020736	0
bin	0.0216	0
bin	0.022464	1
bin	0.023328	1
bin	0.024192	2
bin	0.025056	1
bin	0.02592	0
bin	0.026784	0
bin	0.027648	0
bin	0.028512	0
bin	0.029376	0
bin	0.03024	0
bin	0.031104	2
bin	0.031968	0
bin	0.032832	0
bin	0.033696	1
bin	0.03456	0
bin	0.035424	0
bin	0.036288	1
bin	0.037152	0
bin	0.038016	0
bin	0.03888	0
bin	0.039744	0
bin	0.040608	0
bin	0.041472	0
bin	0.042336	0
bin	0.0432	0
bin	0.044064	1
bin	0.044928	0
bin	0.045792	0
bin	0.046656	0
bin	0.04752	0
bin	0.048384	0
bin	0.049248	0
bin	0.050112	0
bin	0.050976	0
bin	0.05184	0
bin	0.052704	0
bin	0.053568	0
bin	0.054432	0
bin	0.055296	0
bin	0.05616	0
bin	0.057024	0
bin	0.057888	0
bin	0.058752	0
bin	0.059616	0
bin	0.06048	0
bin	0.061344	0
bin	0.062208	0
bin	0.063072	0
bin	0.063936	1
bin	0.0648	0
statistic UAVNetwork_Multi.basicHosts[3].wlan[0].radio symbolErrorRate:histogram
field count 3649
field mean 0.00015111409431743
field stddev 0.0020146550674747
field min 0
field max 0.0640701136126
field sum 0.55141533016429
field sqrsum 0.014889956857419
attr source symbolErrorRate(packetSentToUpper)
attr title "Symbol error rate, histogram"
bin	-inf	0
bin	0	3604
bin	0.000864	6
bin	0.001728	3
bin	0.002592	6
bin	0.003456	4
bin	0.00432	3
bin	0.005184	1
bin	0.006048	2
bin	0.006912	2
bin	0.007776	1
bin	0.00864	2
bin	0.009504	0
bin	0.010368	1
bin	0.011232	1
bin	0.012096	0
bin	0.01296	1
bin	0.013824	0
bin	0.014688	0
bin	0.015552	1
bin	0.016416	0
bin	0.01728	0
bin	0.018144	0
bin	0.019008	0
bin	0.019872	0
bin	0.020736	0
bin	0.0216	0
bin	0.022464	1
bin	0.023328	1
bin	0.024192	2
bin	0.025056	1
bin	0.02592	0
bin	0.026784	0
bin	0.027648	0
bin	0.028512	0
bin	0.029376	0
bin	0.03024	0
bin	0.031104	2
bin	0.031968	0
bin	0.032832	0
bin	0.033696	1
bin	0.03456	0
bin	0.035424	0
bin	0.036288	1
bin	0.037152	0
bin	0.038016	0
bin	0.03888	0
bin	0.039744	0
bin	0.040608	0
bin	0.041472	0
bin	0.042336	0
bin	0.0432	0
bin	0.044064	1
bin	0.044928	0
bin	0.045792	0
bin	0.046656	0
bin	0.04752	0
bin	0.048384	0
bin	0.049248	0
bin	0.050112	0
bin	0.050976	0
bin	0.05184	0
bin	0.052704	0
bin	0.053568	0
bin	0.054432	0
bin	0.055296	0
bin	0.05616	0
bin	0.057024	0
bin	0.057888	0
bin	0.058752	0
bin	0.059616	0
bin	0.06048	0
bin	0.061344	0
bin	0.062208	0
bin	0.063072	0
bin	0.063936	1
bin	0.0648	0
scalar UAVNetwork_Multi.basicHosts[3].wlan[0].radio transmissionState:count 1236
attr interpolationmode sample-hold
attr source transmissionStateChanged
attr title "Radio transmission state, count"
scalar UAVNetwork_Multi.basicHosts[3].wlan[0].radio receptionState:count 11230
attr interpolationmode sample-hold
attr source receptionStateChanged
attr title "Radio reception state, count"
scalar UAVNetwork_Multi.basicHosts[3].wlan[0].radio radioMode:count 621
attr interpolationmode sample-hold
attr source radioModeChanged
attr title "Radio mode, count"
scalar UAVNetwork_Multi.basicHosts[3].ipv4.ip packetDropAddressResolutionFailed:count 0
attr interpolationmode none
attr source packetDropReasonIsAddressResolutionFailed(packetDropped)
attr title "packet drop: address resolution failed, count"
scalar UAVNetwork_Multi.basicHosts[3].ipv4.ip packetDropAddressResolutionFailed:sum(packetBytes) 0
attr interpolationmode none
attr source packetDropReasonIsAddressResolutionFailed(packetDropped)
attr title "packet drop: address resolution failed, sum(packetBytes)"
scalar UAVNetwork_Multi.basicHosts[3].ipv4.ip packetDropHopLimitReached:count 0
attr interpolationmode none
attr source packetDropReasonIsHopLimitReached(packetDropped)
attr title "packet drop: hop limit reached, count"
scalar UAVNetwork_Multi.basicHosts[3].ipv4.ip packetDropHopLimitReached:sum(packetBytes) 0
attr interpolationmode none
attr source packetDropReasonIsHopLimitReached(packetDropped)
attr title "packet drop: hop limit reached, sum(packetBytes)"
scalar UAVNetwork_Multi.basicHosts[3].ipv4.ip packetDropForwardingDisabled:count 10
attr interpolationmode none
attr source packetDropReasonIsForwardingDisabled(packetDropped)
attr title "packet drop: forwarding disabled, count"
scalar UAVNetwork_Multi.basicHosts[3].ipv4.ip packetDropForwardingDisabled:sum(packetBytes) 840
attr interpolationmode none
attr source packetDropReasonIsForwardingDisabled(packetDropped)
attr title "packet drop: forwarding disabled, sum(packetBytes)"
scalar UAVNetwork_Multi.basicHosts[3].ipv4.ip packetDropNoInterfaceFound:count 0
attr interpolationmode none
attr source packetDropReasonIsNoInterfaceFound(packetDropped)
attr title "packet drop: no interface found, count"
scalar UAVNetwork_Multi.basicHosts[3].ipv4.ip packetDropNoInterfaceFound:sum(packetBytes) 0
attr interpolationmode none
attr source packetDropReasonIsNoInterfaceFound(packetDropped)
attr title "packet drop: no interface found, sum(packetBytes)"
scalar UAVNetwork_Multi.basicHosts[3].ipv4.ip packetDropNoRouteFound:count 0
attr interpolationmode none
attr source packetDropReasonIsNoRouteFound(packetDropped)
attr title "packet drop: no route found, count"
scalar UAVNetwork_Multi.basicHosts[3].ipv4.ip packetDropNoRouteFound:sum(packetBytes) 0
attr interpolationmode none
attr source packetDropReasonIsNoRouteFound(packetDropped)
attr title "packet drop: no route found, sum(packetBytes)"
scalar UAVNetwork_Multi.basicHosts[3].ipv4.ip packetDropUndefined:count 0
attr interpolationmode none
attr source packetDropReasonIsUndefined(packetDropped)
attr title "packet drop: undefined, count"
scalar UAVNetwork_Multi.basicHosts[3].ipv4.ip packetDropUndefined:sum(packetBytes) 0
attr interpolationmode none
attr source packetDropReasonIsUndefined(packetDropped)
attr title "packet drop: undefined, sum(packetBytes)"
scalar UAVNetwork_Multi.basicHosts[3].udp packetReceived:count 0
attr interpolationmode none
attr source packetReceived
attr title "packets received, count"
scalar UAVNetwork_Multi.basicHosts[3].udp packetReceived:sum(packetBytes) 0
attr interpolationmode none
attr source packetReceived
attr title "packets received, sum(packetBytes)"
scalar UAVNetwork_Multi.basicHosts[3].udp packetSent:count 0
attr interpolationmode none
attr source packetSent
attr title "packets sent, count"
scalar UAVNetwork_Multi.basicHosts[3].udp packetSent:sum(packetBytes) 0
attr interpolationmode none
attr source packetSent
attr title "packets sent, sum(packetBytes)"
scalar UAVNetwork_Multi.basicHosts[3].udp passedUpPk:count 0
attr interpolationmode none
attr source packetSentToUpper
attr title "packets passed up, count"
scalar UAVNetwork_Multi.basicHosts[3].udp droppedPkWrongPort:count 0
attr interpolationmode none
attr source packetDropReasonIsNoPortFound(packetDropped)
attr title "packets dropped (wrong port), count"
scalar UAVNetwork_Multi.basicHosts[3].udp droppedPkBadChecksum:count 0
attr interpolationmode none
attr source packetDropReasonIsIncorrectlyReceived(packetDropped)
attr title "packets dropped (checksum error), count"
scalar UAVNetwork_Multi.basicHosts[3].app[0] "Pings sent" 17
scalar UAVNetwork_Multi.basicHosts[3].app[0] "ping loss rate (%)" 70.588235294118
scalar UAVNetwork_Multi.basicHosts[3].app[0] "ping out-of-order rate (%)" 0
scalar UAVNetwork_Multi.basicHosts[3].app[0] pingRxSeq:count 5
attr interpolationmode none
attr title "ping rx seq, count"
scalar UAVNetwork_Multi.basicHosts[3].app[0] pingTxSeq:count 17
attr interpolationmode none
attr title "ping tx seq, count"
scalar UAVNetwork_Multi.basicHosts[3].app[0] numOutOfOrderArrivals:last nan
attr interpolationmode none
attr title "ping out-of-order arrivals, last"
scalar UAVNetwork_Multi.basicHosts[3].app[0] numLost:last 7
attr interpolationmode none
attr title "pings lost, last"
statistic UAVNetwork_Multi.basicHosts[3].app[0] rtt:histogram
field count 4
field mean 0.051330138532
field stddev 0.057216437107129
field min 0.00444281954
field max 0.1341654382
field sum 0.205320554128
field sqrsum 0.020360294512559
attr interpolationmode none
attr title "ping round-trip time, histogram"
attr unit s
bin	-inf	0
bin	0	0
bin	0.002	0
bin	0.004	1
bin	0.006	0
bin	0.008	0
bin	0.01	0
bin	0.012	0
bin	0.014	0
bin	0.016	0
bin	0.018	0
bin	0.02	0
bin	0.022	0
bin	0.024	1
bin	0.026	0
bin	0.028	0
bin	0.03	0
bin	0.032	0
bin	0.034	0
bin	0.036	0
bin	0.038	0
bin	0.04	1
bin	0.042	0
bin	0.044	0
bin	0.046	0
bin	0.048	0
bin	0.05	0
bin	0.052	0
bin	0.054	0
bin	0.056	0
bin	0.058	0
bin	0.06	0
bin	0.062	0
bin	0.064	0
bin	0.066	0
bin	0.068	0
bin	0.07	0
bin	0.072	0
bin	0.074	0
bin	0.076	0
bin	0.078	0
bin	0.08	0
bin	0.082	0
bin	0.084	0
bin	0.086	0
bin	0.088	0
bin	0.09	0
bin	0.092	0
bin	0.094	0
bin	0.096	0
bin	0.098	0
bin	0.1	0
bin	0.102	0
bin	0.104	0
bin	0.106	0
bin	0.108	0
bin	0.11	0
bin	0.112	0
bin	0.114	0
bin	0.116	0
bin	0.118	0
bin	0.12	0
bin	0.122	0
bin	0.124	0
bin	0.126	0
bin	0.128	0
bin	0.13	0
bin	0.132	0
bin	0.134	1
bin	0.136	0
bin	0.138	0
bin	0.14	0
bin	0.142	0
bin	0.144	0
bin	0.146	0
bin	0.148	0
bin	0.15	0
bin	0.152	0
bin	0.154	0
bin	0.156	0
bin	0.158	0
bin	0.16	0
bin	0.162	0
bin	0.164	0
bin	0.166	0
bin	0.168	0
scalar UAVNetwork_Multi.basicHosts[4].lo[0].lo rcvdPkFromHl:count 2
attr interpolationmode none
attr source packetReceivedFromUpper
attr title "packets received from higher layer, count"
scalar UAVNetwork_Multi.basicHosts[4].lo[0].lo rcvdPkFromHl:sum(packetBytes) 168
attr interpolationmode none
attr source packetReceivedFromUpper
attr title "packets received from higher layer, sum(packetBytes)"
scalar UAVNetwork_Multi.basicHosts[4].lo[0].lo passedUpPk:count 2
attr interpolationmode none
attr source packetSentToUpper
attr title "packets passed to higher layer, count"
scalar UAVNetwork_Multi.basicHosts[4].lo[0].lo passedUpPk:sum(packetBytes) 168
attr interpolationmode none
attr source packetSentToUpper
attr title "packets passed to higher layer, sum(packetBytes)"
scalar UAVNetwork_Multi.basicHosts[4].wlan[0].mac numRetry 130
scalar UAVNetwork_Multi.basicHosts[4].wlan[0].mac numSentWithoutRetry 31
scalar UAVNetwork_Multi.basicHosts[4].wlan[0].mac numGivenUp 9
scalar UAVNetwork_Multi.basicHosts[4].wlan[0].mac numCollision 737
scalar UAVNetwork_Multi.basicHosts[4].wlan[0].mac numSent 50
scalar UAVNetwork_Multi.basicHosts[4].wlan[0].mac numReceived 65
scalar UAVNetwork_Multi.basicHosts[4].wlan[0].mac numSentBroadcast 75
scalar UAVNetwork_Multi.basicHosts[4].wlan[0].mac numReceivedBroadcast 604
scalar UAVNetwork_Multi.basicHosts[4].wlan[0].mac packetDropIncorrectlyReceived:count 737
attr interpolationmode none
attr source packetDropReasonIsIncorrectlyReceived(packetDropped)
attr title "packet drop: incorrectly received, count"
scalar UAVNetwork_Multi.basicHosts[4].wlan[0].mac packetDropIncorrectlyReceived:sum(packetBytes) 51209
attr interpolationmode none
attr source packetDropReasonIsIncorrectlyReceived(packetDropped)
attr title "packet drop: incorrectly received, sum(packetBytes)"
scalar UAVNetwork_Multi.basicHosts[4].wlan[0].mac packetDropNotAddressedToUs:count 1859
attr interpolationmode none
attr source packetDropReasonIsNotAddressedToUs(packetDropped)
attr title "packet drop: not addressed to us, count"
scalar UAVNetwork_Multi.basicHosts[4].wlan[0].mac packetDropNotAddressedToUs:sum(packetBytes) 143288
attr interpolationmode none
attr source packetDropReasonIsNotAddressedToUs(packetDropped)
attr title "packet drop: not addressed to us, sum(packetBytes)"
scalar UAVNetwork_Multi.basicHosts[4].wlan[0].mac packetDropQueueOverflow:count 0
attr interpolationmode none
attr source packetDropReasonIsQueueOverflow(packetDropped)
attr title "packet drop: queue overflow, count"
scalar UAVNetwork_Multi.basicHosts[4].wlan[0].mac packetDropQueueOverflow:sum(packetBytes) 0
attr interpolationmode none
attr source packetDropReasonIsQueueOverflow(packetDropped)
attr title "packet drop: queue overflow, sum(packetBytes)"
scalar UAVNetwork_Multi.basicHosts[4].wlan[0].mac packetDropRetryLimitReached:count 9
attr interpolationmode none
attr source packetDropReasonIsRetryLimitReached(packetDropped)
attr title "packet drop: retry limit reached, count"
scalar UAVNetwork_Multi.basicHosts[4].wlan[0].mac packetDropRetryLimitReached:sum(packetBytes) 684
attr interpolationmode none
attr source packetDropReasonIsRetryLimitReached(packetDropped)
attr title "packet drop: retry limit reached, sum(packetBytes)"
scalar UAVNetwork_Multi.basicHosts[4].wlan[0].mac linkBroken:count 9
attr interpolationmode none
attr source linkBroken
attr title "link break, count"
statistic UAVNetwork_Multi.basicHosts[4].wlan[0].radio minSnir:histogram
field count 4185
field mean 8.5824332154618
field stddev 16.941602787714
field min 0.049602104758883
field max 226.82620007108
field sum 35917.483006708
field sqrsum 1509142.3137624
attr source minimumSnir(packetSentToUpper)
attr title "Min SNIR, histogram"
bin	-inf	0
bin	0	881
bin	3	1601
bin	6	809
bin	9	374
bin	12	139
bin	15	106
bin	18	61
bin	21	39
bin	24	24
bin	27	20
bin	30	10
bin	33	13
bin	36	10
bin	39	10
bin	42	7
bin	45	4
bin	48	4
bin	51	1
bin	54	4
bin	57	1
bin	60	3
bin	63	0
bin	66	1
bin	69	3
bin	72	2
bin	75	0
bin	78	3
bin	81	4
bin	84	1
bin	87	2
bin	90	1
bin	93	1
bin	96	0
bin	99	0
bin	102	2
bin	105	1
bin	108	2
bin	111	0
bin	114	0
bin	117	3
bin	120	1
bin	123	2
bin	126	3
bin	129	0
bin	132	2
bin	135	2
bin	138	3
bin	141	3
bin	144	1
bin	147	2
bin	150	1
bin	153	3
bin	156	2
bin	159	2
bin	162	4
bin	165	0
bin	168	0
bin	171	0
bin	174	1
bin	177	1
bin	180	0
bin	183	0
bin	186	1
bin	189	0
bin	192	0
bin	195	0
bin	198	1
bin	201	0
bin	204	2
bin	207	0
bin	210	0
bin	213	0
bin	216	0
bin	219	0
bin	222	0
bin	225	1
bin	228	0
statistic UAVNetwork_Multi.basicHosts[4].wlan[0].radio packetErrorRate:histogram
field count 4185
field mean 0.015413225155898
field stddev 0.10778593871423
field min 0
field max 1
field sum 64.504347277435
field sqrsum 49.603131145704
attr source packetErrorRate(packetSentToUpper)
attr title "Packet error rate, histogram"
bin	-inf	0
bin	0	4045
bin	0.02	13
bin	0.04	9
bin	0.06	11
bin	0.08	1
bin	0.1	7
bin	0.12	4
bin	0.14	6
bin	0.16	3
bin	0.18	5
bin	0.2	3
bin	0.22	1
bin	0.24	3
bin	0.26	2
bin	0.28	2
bin	0.3	1
bin	0.32	3
bin	0.34	2
bin	0.36	1
bin	0.38	1
bin	0.4	1
bin	0.42	0
bin	0.44	0
bin	0.46	1
bin	0.48	1
bin	0.5	1
bin	0.52	0
bin	0.54	0
bin	0.56	1
bin	0.58	2
bin	0.6	0
bin	0.62	3
bin	0.64	0
bin	0.66	0
bin	0.68	0
bin	0.7	2
bin	0.72	2
bin	0.74	1
bin	0.76	1
bin	0.78	3
bin	0.8	2
bin	0.82	3
bin	0.84	1
bin	0.86	2
bin	0.88	2
bin	0.9	2
bin	0.92	2
bin	0.94	1
bin	0.96	2
bin	0.98	22
bin	1	4
bin	1.02	0
bin	1.04	0
bin	1.06	0
bin	1.08	0
bin	1.1	0
bin	1.12	0
bin	1.14	0
bin	1.16	0
bin	1.18	0
bin	1.2	0
bin	1.22	0
bin	1.24	0
bin	1.26	0
statistic UAVNetwork_Multi.basicHosts[4].wlan[0].radio bitErrorRate:histogram
field count 4185
field mean 0.0002363927750637
field stddev 0.0037236971132356
field min 0
field max 0.15962189013889
field sum 0.9893037636416
field sqrsum 0.058248874341712
attr source bitErrorRate(packetSentToUpper)
attr title "Bit error rate, histogram"
bin	-inf	0
bin	0	4135
bin	0.002	19
bin	0.004	4
bin	0.006	5
bin	0.008	2
bin	0.01	0
bin	0.012	2
bin	0.014	1
bin	0.016	0
bin	0.018	3
bin	0.02	1
bin	0.022	2
bin	0.024	1
bin	0.026	1
bin	0.028	0
bin	0.03	0
bin	0.032	0
bin	0.034	1
bin	0.036	0
bin	0.038	0
bin	0.04	1
bin	0.042	1
bin	0.044	0
bin	0.046	0
bin	0.048	0
bin	0.05	2
bin	0.052	0
bin	0.054	1
bin	0.056	0
bin	0.058	0
bin	0.06	0
bin	0.062	0
bin	0.064	0
bin	0.066	0
bin	0.068	0
bin	0.07	0
bin	0.072	1
bin	0.074	0
bin	0.076	0
bin	0.078	0
bin	0.08	0
bin	0.082	0
bin	0.084	0
bin	0.086	0
bin	0.088	0
bin	0.09	0
bin	0.092	0
bin	0.094	0
bin	0.096	1
bin	0.098	0
bin	0.1	0
bin	0.102	0
bin	0.104	0
bin	0.106	0
bin	0.108	0
bin	0.11	0
bin	0.112	0
bin	0.114	0
bin	0.116	0
bin	0.118	0
bin	0.12	0
bin	0.122	0
bin	0.124	0
bin	0.126	0
bin	0.128	0
bin	0.13	0
bin	0.132	0
bin	0.134	0
bin	0.136	0
bin	0.138	0
bin	0.14	0
bin	0.142	0
bin	0.144	0
bin	0.146	0
bin	0.148	0
bin	0.15	0
bin	0.152	0
bin	0.154	0
bin	0.156	0
bin	0.158	1
bin	0.16	0
statistic UAVNetwork_Multi.basicHosts[4].wlan[0].radio symbolErrorRate:histogram
field count 4185
field mean 0.0002363927750637
field stddev 0.0037236971132356
field min 0
field max 0.15962189013889
field sum 0.9893037636416
field sqrsum 0.058248874341712
attr source symbolErrorRate(packetSentToUpper)
attr title "Symbol error rate, histogram"
bin	-inf	0
bin	0	4135
bin	0.002	19
bin	0.004	4
bin	0.006	5
bin	0.008	2
bin	0.01	0
bin	0.012	2
bin	0.014	1
bin	0.016	0
bin	0.018	3
bin	0.02	1
bin	0.022	2
bin	0.024	1
bin	0.026	1
bin	0.028	0
bin	0.03	0
bin	0.032	0
bin	0.034	1
bin	0.036	0
bin	0.038	0
bin	0.04	1
bin	0.042	1
bin	0.044	0
bin	0.046	0
bin	0.048	0
bin	0.05	2
bin	0.052	0
bin	0.054	1
bin	0.056	0
bin	0.058	0
bin	0.06	0
bin	0.062	0
bin	0.064	0
bin	0.066	0
bin	0.068	0
bin	0.07	0
bin	0.072	1
bin	0.074	0
bin	0.076	0
bin	0.078	0
bin	0.08	0
bin	0.082	0
bin	0.084	0
bin	0.086	0
bin	0.088	0
bin	0.09	0
bin	0.092	0
bin	0.094	0
bin	0.096	1
bin	0.098	0
bin	0.1	0
bin	0.102	0
bin	0.104	0
bin	0.106	0
bin	0.108	0
bin	0.11	0
bin	0.112	0
bin	0.114	0
bin	0.116	0
bin	0.118	0
bin	0.12	0
bin	0.122	0
bin	0.124	0
bin	0.126	0
bin	0.128	0
bin	0.13	0
bin	0.132	0
bin	0.134	0
bin	0.136	0
bin	0.138	0
bin	0.14	0
bin	0.142	0
bin	0.144	0
bin	0.146	0
bin	0.148	0
bin	0.15	0
bin	0.152	0
bin	0.154	0
bin	0.156	0
bin	0.158	1
bin	0.16	0
scalar UAVNetwork_Multi.basicHosts[4].wlan[0].radio transmissionState:count 1316
attr interpolationmode sample-hold
attr source transmissionStateChanged
attr title "Radio transmission state, count"
scalar UAVNetwork_Multi.basicHosts[4].wlan[0].radio receptionState:count 12463
attr interpolationmode sample-hold
attr source receptionStateChanged
attr title "Radio reception state, count"
scalar UAVNetwork_Multi.basicHosts[4].wlan[0].radio radioMode:count 661
attr interpolationmode sample-hold
attr source radioModeChanged
attr title "Radio mode, count"
scalar UAVNetwork_Multi.basicHosts[4].ipv4.ip packetDropAddressResolutionFailed:count 0
attr interpolationmode none
attr source packetDropReasonIsAddressResolutionFailed(packetDropped)
attr title "packet drop: address resolution failed, count"
scalar UAVNetwork_Multi.basicHosts[4].ipv4.ip packetDropAddressResolutionFailed:sum(packetBytes) 0
attr interpolationmode none
attr source packetDropReasonIsAddressResolutionFailed(packetDropped)
attr title "packet drop: address resolution failed, sum(packetBytes)"
scalar UAVNetwork_Multi.basicHosts[4].ipv4.ip packetDropHopLimitReached:count 0
attr interpolationmode none
attr source packetDropReasonIsHopLimitReached(packetDropped)
attr title "packet drop: hop limit reached, count"
scalar UAVNetwork_Multi.basicHosts[4].ipv4.ip packetDropHopLimitReached:sum(packetBytes) 0
attr interpolationmode none
attr source packetDropReasonIsHopLimitReached(packetDropped)
attr title "packet drop: hop limit reached, sum(packetBytes)"
scalar UAVNetwork_Multi.basicHosts[4].ipv4.ip packetDropForwardingDisabled:count 14
attr interpolationmode none
attr source packetDropReasonIsForwardingDisabled(packetDropped)
attr title "packet drop: forwarding disabled, count"
scalar UAVNetwork_Multi.basicHosts[4].ipv4.ip packetDropForwardingDisabled:sum(packetBytes) 1140
attr interpolationmode none
attr source packetDropReasonIsForwardingDisabled(packetDropped)
attr title "packet drop: forwarding disabled, sum(packetBytes)"
scalar UAVNetwork_Multi.basicHosts[4].ipv4.ip packetDropNoInterfaceFound:count 0
attr interpolationmode none
attr source packetDropReasonIsNoInterfaceFound(packetDropped)
attr title "packet drop: no interface found, count"
scalar UAVNetwork_Multi.basicHosts[4].ipv4.ip packetDropNoInterfaceFound:sum(packetBytes) 0
attr interpolationmode none
attr source packetDropReasonIsNoInterfaceFound(packetDropped)
attr title "packet drop: no interface found, sum(packetBytes)"
scalar UAVNetwork_Multi.basicHosts[4].ipv4.ip packetDropNoRouteFound:count 0
attr interpolationmode none
attr source packetDropReasonIsNoRouteFound(packetDropped)
attr title "packet drop: no route found, count"
scalar UAVNetwork_Multi.basicHosts[4].ipv4.ip packetDropNoRouteFound:sum(packetBytes) 0
attr interpolationmode none
attr source packetDropReasonIsNoRouteFound(packetDropped)
attr title "packet drop: no route found, sum(packetBytes)"
scalar UAVNetwork_Multi.basicHosts[4].ipv4.ip packetDropUndefined:count 0
attr interpolationmode none
attr source packetDropReasonIsUndefined(packetDropped)
attr title "packet drop: undefined, count"
scalar UAVNetwork_Multi.basicHosts[4].ipv4.ip packetDropUndefined:sum(packetBytes) 0
attr interpolationmode none
attr source packetDropReasonIsUndefined(packetDropped)
attr title "packet drop: undefined, sum(packetBytes)"
scalar UAVNetwork_Multi.basicHosts[4].udp packetReceived:count 0
attr interpolationmode none
attr source packetReceived
attr title "packets received, count"
scalar UAVNetwork_Multi.basicHosts[4].udp packetReceived:sum(packetBytes) 0
attr interpolationmode none
attr source packetReceived
[...]
attr title "packet drop: address resolution failed, sum(packetBytes)"
scalar UAVNetwork_Multi.hostRouters[3].ipv4.ip packetDropHopLimitReached:count 4
attr interpolationmode none
attr source packetDropReasonIsHopLimitReached(packetDropped)
attr title "packet drop: hop limit reached, count"
scalar UAVNetwork_Multi.hostRouters[3].ipv4.ip packetDropHopLimitReached:sum(packetBytes) 336
attr interpolationmode none
attr source packetDropReasonIsHopLimitReached(packetDropped)
attr title "packet drop: hop limit reached, sum(packetBytes)"
scalar UAVNetwork_Multi.hostRouters[3].ipv4.ip packetDropForwardingDisabled:count 0
attr interpolationmode none
attr source packetDropReasonIsForwardingDisabled(packetDropped)
attr title "packet drop: forwarding disabled, count"
scalar UAVNetwork_Multi.hostRouters[3].ipv4.ip packetDropForwardingDisabled:sum(packetBytes) 0
attr interpolationmode none
attr source packetDropReasonIsForwardingDisabled(packetDropped)
attr title "packet drop: forwarding disabled, sum(packetBytes)"
scalar UAVNetwork_Multi.hostRouters[3].ipv4.ip packetDropNoInterfaceFound:count 0
attr interpolationmode none
attr source packetDropReasonIsNoInterfaceFound(packetDropped)
attr title "packet drop: no interface found, count"
scalar UAVNetwork_Multi.hostRouters[3].ipv4.ip packetDropNoInterfaceFound:sum(packetBytes) 0
attr interpolationmode none
attr source packetDropReasonIsNoInterfaceFound(packetDropped)
attr title "packet drop: no interface found, sum(packetBytes)"
scalar UAVNetwork_Multi.hostRouters[3].ipv4.ip packetDropNoRouteFound:count 0
attr interpolationmode none
attr source packetDropReasonIsNoRouteFound(packetDropped)
attr title "packet drop: no route found, count"
scalar UAVNetwork_Multi.hostRouters[3].ipv4.ip packetDropNoRouteFound:sum(packetBytes) 0
attr interpolationmode none
attr source packetDropReasonIsNoRouteFound(packetDropped)
attr title "packet drop: no route found, sum(packetBytes)"
scalar UAVNetwork_Multi.hostRouters[3].ipv4.ip packetDropUndefined:count 0
attr interpolationmode none
attr source packetDropReasonIsUndefined(packetDropped)
attr title "packet drop: undefined, count"
scalar UAVNetwork_Multi.hostRouters[3].ipv4.ip packetDropUndefined:sum(packetBytes) 0
attr interpolationmode none
attr source packetDropReasonIsUndefined(packetDropped)
attr title "packet drop: undefined, sum(packetBytes)"
scalar UAVNetwork_Multi.hostRouters[3].udp packetReceived:count 0
attr interpolationmode none
attr source packetReceived
attr title "packets received, count"
scalar UAVNetwork_Multi.hostRouters[3].udp packetReceived:sum(packetBytes) 0
attr interpolationmode none
attr source packetReceived
attr title "packets received, sum(packetBytes)"
scalar UAVNetwork_Multi.hostRouters[3].udp packetSent:count 0
attr interpolationmode none
attr source packetSent
attr title "packets sent, count"
scalar UAVNetwork_Multi.hostRouters[3].udp packetSent:sum(packetBytes) 0
attr interpolationmode none
attr source packetSent
attr title "packets sent, sum(packetBytes)"
scalar UAVNetwork_Multi.hostRouters[3].udp passedUpPk:count 0
attr interpolationmode none
attr source packetSentToUpper
attr title "packets passed up, count"
scalar UAVNetwork_Multi.hostRouters[3].udp droppedPkWrongPort:count 0
attr interpolationmode none
attr source packetDropReasonIsNoPortFound(packetDropped)
attr title "packets dropped (wrong port), count"
scalar UAVNetwork_Multi.hostRouters[3].udp droppedPkBadChecksum:count 0
attr interpolationmode none
attr source packetDropReasonIsIncorrectlyReceived(packetDropped)
attr title "packets dropped (checksum error), count"
scalar UAVNetwork_Multi.hostRouters[3].app[0] "Pings sent" 16
scalar UAVNetwork_Multi.hostRouters[3].app[0] "ping loss rate (%)" 50
scalar UAVNetwork_Multi.hostRouters[3].app[0] "ping out-of-order rate (%)" 37.5
scalar UAVNetwork_Multi.hostRouters[3].app[0] pingRxSeq:count 14
attr interpolationmode none
attr title "ping rx seq, count"
scalar UAVNetwork_Multi.hostRouters[3].app[0] pingTxSeq:count 16
attr interpolationmode none
attr title "ping tx seq, count"
scalar UAVNetwork_Multi.hostRouters[3].app[0] numOutOfOrderArrivals:last 6
attr interpolationmode none
attr title "ping out-of-order arrivals, last"
scalar UAVNetwork_Multi.hostRouters[3].app[0] numLost:last 8
attr interpolationmode none
attr title "pings lost, last"
statistic UAVNetwork_Multi.hostRouters[3].app[0] rtt:histogram
field count 8
field mean 0.032794657957625
field stddev 0.035873079288396
field min 0.006239053604
field max 0.089870810014
field sum 0.262357263661
field sqrsum 0.017612061447882
attr interpolationmode none
attr title "ping round-trip time, histogram"
attr unit s
bin	-inf	0
bin	0	0
bin	0.002	0
bin	0.004	0
bin	0.006	2
bin	0.008	0
bin	0.01	2
bin	0.012	0
bin	0.014	0
bin	0.016	0
bin	0.018	0
bin	0.02	0
bin	0.022	1
bin	0.024	1
bin	0.026	0
bin	0.028	0
bin	0.03	0
bin	0.032	0
bin	0.034	0
bin	0.036	0
bin	0.038	0
bin	0.04	0
bin	0.042	0
bin	0.044	0
bin	0.046	0
bin	0.048	0
bin	0.05	0
bin	0.052	0
bin	0.054	0
bin	0.056	0
bin	0.058	0
bin	0.06	0
bin	0.062	0
bin	0.064	0
bin	0.066	0
bin	0.068	0
bin	0.07	0
bin	0.072	0
bin	0.074	0
bin	0.076	0
bin	0.078	0
bin	0.08	0
bin	0.082	0
bin	0.084	0
bin	0.086	0
bin	0.088	2
bin	0.09	0
bin	0.092	0
bin	0.094	0
bin	0.096	0
bin	0.098	0
bin	0.1	0
bin	0.102	0
bin	0.104	0
bin	0.106	0
bin	0.108	0
bin	0.11	0
bin	0.112	0
scalar UAVNetwork_Multi.hostRouters[4].lo[0].lo rcvdPkFromHl:count 0
attr interpolationmode none
attr source packetReceivedFromUpper
attr title "packets received from higher layer, count"
scalar UAVNetwork_Multi.hostRouters[4].lo[0].lo rcvdPkFromHl:sum(packetBytes) 0
attr interpolationmode none
attr source packetReceivedFromUpper
attr title "packets received from higher layer, sum(packetBytes)"
scalar UAVNetwork_Multi.hostRouters[4].lo[0].lo passedUpPk:count 0
attr interpolationmode none
attr source packetSentToUpper
attr title "packets passed to higher layer, count"
scalar UAVNetwork_Multi.hostRouters[4].lo[0].lo passedUpPk:sum(packetBytes) 0
attr interpolationmode none
attr source packetSentToUpper
attr title "packets passed to higher layer, sum(packetBytes)"
scalar UAVNetwork_Multi.hostRouters[4].wlan[0].mac numRetry 82
scalar UAVNetwork_Multi.hostRouters[4].wlan[0].mac numSentWithoutRetry 95
scalar UAVNetwork_Multi.hostRouters[4].wlan[0].mac numGivenUp 4
scalar UAVNetwork_Multi.hostRouters[4].wlan[0].mac numCollision 655
scalar UAVNetwork_Multi.hostRouters[4].wlan[0].mac numSent 125
scalar UAVNetwork_Multi.hostRouters[4].wlan[0].mac numReceived 99
scalar UAVNetwork_Multi.hostRouters[4].wlan[0].mac numSentBroadcast 81
scalar UAVNetwork_Multi.hostRouters[4].wlan[0].mac numReceivedBroadcast 664
scalar UAVNetwork_Multi.hostRouters[4].wlan[0].mac packetDropIncorrectlyReceived:count 655
attr interpolationmode none
attr source packetDropReasonIsIncorrectlyReceived(packetDropped)
attr title "packet drop: incorrectly received, count"
scalar UAVNetwork_Multi.hostRouters[4].wlan[0].mac packetDropIncorrectlyReceived:sum(packetBytes) 44540
attr interpolationmode none
attr source packetDropReasonIsIncorrectlyReceived(packetDropped)
attr title "packet drop: incorrectly received, sum(packetBytes)"
scalar UAVNetwork_Multi.hostRouters[4].wlan[0].mac packetDropNotAddressedToUs:count 2019
attr interpolationmode none
attr source packetDropReasonIsNotAddressedToUs(packetDropped)
attr title "packet drop: not addressed to us, count"
scalar UAVNetwork_Multi.hostRouters[4].wlan[0].mac packetDropNotAddressedToUs:sum(packetBytes) 155012
attr interpolationmode none
attr source packetDropReasonIsNotAddressedToUs(packetDropped)
attr title "packet drop: not addressed to us, sum(packetBytes)"
scalar UAVNetwork_Multi.hostRouters[4].wlan[0].mac packetDropQueueOverflow:count 0
attr interpolationmode none
attr source packetDropReasonIsQueueOverflow(packetDropped)
attr title "packet drop: queue overflow, count"
scalar UAVNetwork_Multi.hostRouters[4].wlan[0].mac packetDropQueueOverflow:sum(packetBytes) 0
attr interpolationmode none
attr source packetDropReasonIsQueueOverflow(packetDropped)
attr title "packet drop: queue overflow, sum(packetBytes)"
scalar UAVNetwork_Multi.hostRouters[4].wlan[0].mac packetDropRetryLimitReached:count 4
attr interpolationmode none
attr source packetDropReasonIsRetryLimitReached(packetDropped)
attr title "packet drop: retry limit reached, count"
scalar UAVNetwork_Multi.hostRouters[4].wlan[0].mac packetDropRetryLimitReached:sum(packetBytes) 296
attr interpolationmode none
attr source packetDropReasonIsRetryLimitReached(packetDropped)
attr title "packet drop: retry limit reached, sum(packetBytes)"
scalar UAVNetwork_Multi.hostRouters[4].wlan[0].mac linkBroken:count 4
attr interpolationmode none
attr source linkBroken
attr title "link break, count"
statistic UAVNetwork_Multi.hostRouters[4].wlan[0].radio minSnir:histogram
field count 4440
field mean 17.606163218445
field stddev 68.123075555996
field min 0.0072401024003882
field max 1361.2091993583
field sum 78171.364689897
field sqrsum 21976602.251359
attr source minimumSnir(packetSentToUpper)
attr title "Min SNIR, histogram"
bin	-inf	0
bin	0	4018
bin	24	221
bin	48	66
bin	72	25
bin	96	11
bin	120	7
bin	144	4
bin	168	5
bin	192	4
bin	216	5
bin	240	10
bin	264	3
bin	288	7
bin	312	7
bin	336	9
bin	360	2
bin	384	4
bin	408	6
bin	432	1
bin	456	1
bin	480	1
bin	504	4
bin	528	3
bin	552	3
bin	576	0
bin	600	2
bin	624	1
bin	648	0
bin	672	1
bin	696	0
bin	720	1
bin	744	0
bin	768	0
bin	792	1
bin	816	0
bin	840	0
bin	864	0
bin	888	0
bin	912	1
bin	936	1
bin	960	0
bin	984	1
bin	1008	0
bin	1032	1
bin	1056	0
bin	1080	0
bin	1104	0
bin	1128	0
bin	1152	0
bin	1176	1
bin	1200	0
bin	1224	1
bin	1248	0
bin	1272	0
bin	1296	0
bin	1320	0
bin	1344	1
bin	1368	0
statistic UAVNetwork_Multi.hostRouters[4].wlan[0].radio packetErrorRate:histogram
field count 4440
field mean 0.014704158545493
field stddev 0.10528613930907
field min 0
field max 1
field sum 65.286463941987
field sqrsum 50.167057165454
attr source packetErrorRate(packetSentToUpper)
attr title "Packet error rate, histogram"
bin	-inf	0
bin	0	4299
bin	0.02	16
bin	0.04	11
bin	0.06	8
bin	0.08	4
bin	0.1	3
bin	0.12	8
bin	0.14	4
bin	0.16	0
bin	0.18	3
bin	0.2	2
bin	0.22	1
bin	0.24	1
bin	0.26	1
bin	0.28	1
bin	0.3	1
bin	0.32	5
bin	0.34	2
bin	0.36	2
bin	0.38	3
bin	0.4	1
bin	0.42	0
bin	0.44	1
bin	0.46	2
bin	0.48	0
bin	0.5	1
bin	0.52	2
bin	0.54	3
bin	0.56	1
bin	0.58	2
bin	0.6	2
bin	0.62	0
bin	0.64	2
bin	0.66	2
bin	0.68	1
bin	0.7	1
bin	0.72	1
bin	0.74	2
bin	0.76	0
bin	0.78	1
bin	0.8	0
bin	0.82	0
bin	0.84	1
bin	0.86	1
bin	0.88	1
bin	0.9	0
bin	0.92	0
bin	0.94	5
bin	0.96	3
bin	0.98	24
bin	1	5
bin	1.02	0
bin	1.04	0
bin	1.06	0
bin	1.08	0
bin	1.1	0
bin	1.12	0
bin	1.14	0
bin	1.16	0
bin	1.18	0
bin	1.2	0
bin	1.22	0
statistic UAVNetwork_Multi.hostRouters[4].wlan[0].radio bitErrorRate:histogram
field count 4440
field mean 0.00040832918730437
field stddev 0.0093203628125037
field min 0
field max 0.3517765194571
field sum 1.8129815916314
field sqrsum 0.38635250766471
attr source bitErrorRate(packetSentToUpper)
attr title "Bit error rate, histogram"
bin	-inf	0
bin	0	4407
bin	0.006	14
bin	0.012	3
bin	0.018	4
bin	0.024	1
bin	0.03	3
bin	0.036	1
bin	0.042	0
bin	0.048	0
bin	0.054	2
bin	0.06	0
bin	0.066	1
bin	0.072	0
bin	0.078	1
bin	0.084	0
bin	0.09	0
bin	0.096	0
bin	0.102	0
bin	0.108	0
bin	0.114	0
bin	0.12	0
bin	0.126	0
bin	0.132	0
bin	0.138	0
bin	0.144	0
bin	0.15	0
bin	0.156	0
bin	0.162	0
bin	0.168	0
bin	0.174	0
bin	0.18	0
bin	0.186	0
bin	0.192	0
bin	0.198	0
bin	0.204	0
bin	0.21	0
bin	0.216	0
bin	0.222	0
bin	0.228	0
bin	0.234	0
bin	0.24	0
bin	0.246	0
bin	0.252	0
bin	0.258	0
bin	0.264	0
bin	0.27	0
bin	0.276	0
bin	0.282	0
bin	0.288	0
bin	0.294	0
bin	0.3	0
bin	0.306	0
bin	0.312	0
bin	0.318	0
bin	0.324	0
bin	0.33	0
bin	0.336	1
bin	0.342	0
bin	0.348	2
bin	0.354	0
statistic UAVNetwork_Multi.hostRouters[4].wlan[0].radio symbolErrorRate:histogram
field count 4440
field mean 0.00040832918730437
field stddev 0.0093203628125037
field min 0
field max 0.3517765194571
field sum 1.8129815916314
field sqrsum 0.38635250766471
attr source symbolErrorRate(packetSentToUpper)
attr title "Symbol error rate, histogram"
bin	-inf	0
bin	0	4407
bin	0.006	14
bin	0.012	3
bin	0.018	4
bin	0.024	1
bin	0.03	3
bin	0.036	1
bin	0.042	0
bin	0.048	0
bin	0.054	2
bin	0.06	0
bin	0.066	1
bin	0.072	0
bin	0.078	1
bin	0.084	0
bin	0.09	0
bin	0.096	0
bin	0.102	0
bin	0.108	0
bin	0.114	0
bin	0.12	0
bin	0.126	0
bin	0.132	0
bin	0.138	0
bin	0.144	0
bin	0.15	0
bin	0.156	0
bin	0.162	0
bin	0.168	0
bin	0.174	0
bin	0.18	0
bin	0.186	0
bin	0.192	0
bin	0.198	0
bin	0.204	0
bin	0.21	0
bin	0.216	0
bin	0.222	0
bin	0.228	0
bin	0.234	0
bin	0.24	0
bin	0.246	0
bin	0.252	0
bin	0.258	0
bin	0.264	0
bin	0.27	0
bin	0.276	0
bin	0.282	0
bin	0.288	0
bin	0.294	0
bin	0.3	0
bin	0.306	0
bin	0.312	0
bin	0.318	0
bin	0.324	0
bin	0.33	0
bin	0.336	1
bin	0.342	0
bin	0.348	2
bin	0.354	0
scalar UAVNetwork_Multi.hostRouters[4].wlan[0].radio transmissionState:count 1564
attr interpolationmode sample-hold
attr source transmissionStateChanged
attr title "Radio transmission state, count"
scalar UAVNetwork_Multi.hostRouters[4].wlan[0].radio receptionState:count 12993
attr interpolationmode sample-hold
attr source receptionStateChanged
attr title "Radio reception state, count"
scalar UAVNetwork_Multi.hostRouters[4].wlan[0].radio radioMode:count 785
attr interpolationmode sample-hold
attr source radioModeChanged
attr title "Radio mode, count"
scalar UAVNetwork_Multi.hostRouters[4].ipv4.ip packetDropAddressResolutionFailed:count 0
attr interpolationmode none
attr source packetDropReasonIsAddressResolutionFailed(packetDropped)
attr title "packet drop: address resolution failed, count"
scalar UAVNetwork_Multi.hostRouters[4].ipv4.ip packetDropAddressResolutionFailed:sum(packetBytes) 0
attr interpolationmode none
attr source packetDropReasonIsAddressResolutionFailed(packetDropped)
attr title "packet drop: address resolution failed, sum(packetBytes)"
scalar UAVNetwork_Multi.hostRouters[4].ipv4.ip packetDropHopLimitReached:count 14
attr interpolationmode none
attr source packetDropReasonIsHopLimitReached(packetDropped)
attr title "packet drop: hop limit reached, count"
scalar UAVNetwork_Multi.hostRouters[4].ipv4.ip packetDropHopLimitReached:sum(packetBytes) 1176
attr interpolationmode none
attr source packetDropReasonIsHopLimitReached(packetDropped)
attr title "packet drop: hop limit reached, sum(packetBytes)"
scalar UAVNetwork_Multi.hostRouters[4].ipv4.ip packetDropForwardingDisabled:count 0
attr interpolationmode none
attr source packetDropReasonIsForwardingDisabled(packetDropped)
attr title "packet drop: forwarding disabled, count"
scalar UAVNetwork_Multi.hostRouters[4].ipv4.ip packetDropForwardingDisabled:sum(packetBytes) 0
attr interpolationmode none
attr source packetDropReasonIsForwardingDisabled(packetDropped)
attr title "packet drop: forwarding disabled, sum(packetBytes)"
scalar UAVNetwork_Multi.hostRouters[4].ipv4.ip packetDropNoInterfaceFound:count 0
attr interpolationmode none
attr source packetDropReasonIsNoInterfaceFound(packetDropped)
attr title "packet drop: no interface found, count"
scalar UAVNetwork_Multi.hostRouters[4].ipv4.ip packetDropNoInterfaceFound:sum(packetBytes) 0
attr interpolationmode none
attr source packetDropReasonIsNoInterfaceFound(packetDropped)
attr title "packet drop: no interface found, sum(packetBytes)"
scalar UAVNetwork_Multi.hostRouters[4].ipv4.ip packetDropNoRouteFound:count 0
attr interpolationmode none
attr source packetDropReasonIsNoRouteFound(packetDropped)
attr title "packet drop: no route found, count"
scalar UAVNetwork_Multi.hostRouters[4].ipv4.ip packetDropNoRouteFound:sum(packetBytes) 0
attr interpolationmode none
attr source packetDropReasonIsNoRouteFound(packetDropped)
attr title "packet drop: no route found, sum(packetBytes)"
scalar UAVNetwork_Multi.hostRouters[4].ipv4.ip packetDropUndefined:count 0
attr interpolationmode none
attr source packetDropReasonIsUndefined(packetDropped)
attr title "packet drop: undefined, count"
scalar UAVNetwork_Multi.hostRouters[4].ipv4.ip packetDropUndefined:sum(packetBytes) 0
attr interpolationmode none
attr source packetDropReasonIsUndefined(packetDropped)
attr title "packet drop: undefined, sum(packetBytes)"
scalar UAVNetwork_Multi.hostRouters[4].udp packetReceived:count 0
attr interpolationmode none
attr source packetReceived
attr title "packets received, count"
scalar UAVNetwork_Multi.hostRouters[4].udp packetReceived:sum(packetBytes) 0
attr interpolationmode none
attr source packetReceived
attr title "packets received, sum(packetBytes)"
scalar UAVNetwork_Multi.hostRouters[4].udp packetSent:count 0
attr interpolationmode none
attr source packetSent
attr title "packets sent, count"
scalar UAVNetwork_Multi.hostRouters[4].udp packetSent:sum(packetBytes) 0
attr interpolationmode none
attr source packetSent
attr title "packets sent, sum(packetBytes)"
scalar UAVNetwork_Multi.hostRouters[4].udp passedUpPk:count 0
attr interpolationmode none
attr source packetSentToUpper
attr title "packets passed up, count"
scalar UAVNetwork_Multi.hostRouters[4].udp droppedPkWrongPort:count 0
attr interpolationmode none
attr source packetDropReasonIsNoPortFound(packetDropped)
attr title "packets dropped (wrong port), count"
scalar UAVNetwork_Multi.hostRouters[4].udp droppedPkBadChecksum:count 0
attr interpolationmode none
attr source packetDropReasonIsIncorrectlyReceived(packetDropped)
attr title "packets dropped (checksum error), count"
scalar UAVNetwork_Multi.hostRouters[4].app[0] "Pings sent" 15
scalar UAVNetwork_Multi.hostRouters[4].app[0] "ping loss rate (%)" 13.333333333333
scalar UAVNetwork_Multi.hostRouters[4].app[0] "ping out-of-order rate (%)" 0
scalar UAVNetwork_Multi.hostRouters[4].app[0] pingRxSeq:count 13
attr interpolationmode none
attr title "ping rx seq, count"
scalar UAVNetwork_Multi.hostRouters[4].app[0] pingTxSeq:count 15
attr interpolationmode none
attr title "ping tx seq, count"
scalar UAVNetwork_Multi.hostRouters[4].app[0] numOutOfOrderArrivals:last nan
attr interpolationmode none
attr title "ping out-of-order arrivals, last"
scalar UAVNetwork_Multi.hostRouters[4].app[0] numLost:last 2
attr interpolationmode none
attr title "pings lost, last"
statistic UAVNetwork_Multi.hostRouters[4].app[0] rtt:histogram
field count 13
field mean 0.0034443254367692
field stddev 0.0012926522802195
field min 0.001986391806
field max 0.005965182835
field sum 0.044776230678
field sqrsum 0.00017427530929756
attr interpolationmode none
attr title "ping round-trip time, histogram"
attr unit s
bin	-inf	0
bin	0.0009	0
bin	0.001	0
bin	0.0011	0
bin	0.0012	0
bin	0.0013	0
bin	0.0014	0
bin	0.0015	0
bin	0.0016	0
bin	0.0017	0
bin	0.0018	0
bin	0.0019	1
bin	0.002	0
bin	0.0021	1
bin	0.0022	0
bin	0.0023	0
bin	0.0024	0
bin	0.0025	1
bin	0.0026	0
bin	0.0027	3
bin	0.0028	0
bin	0.0029	2
bin	0.003	0
bin	0.0031	1
bin	0.0032	0
bin	0.0033	0
bin	0.0034	0
bin	0.0035	0
bin	0.0036	0
bin	0.0037	0
bin	0.0038	0
bin	0.0039	0
bin	0.004	0
bin	0.0041	0
bin	0.0042	0
bin	0.0043	0
bin	0.0044	0
bin	0.0045	0
bin	0.0046	0
bin	0.0047	0
bin	0.0048	1
bin	0.0049	1
bin	0.005	1
bin	0.0051	0
bin	0.0052	0
bin	0.0053	0
bin	0.0054	0
bin	0.0055	0
bin	0.0056	0
bin	0.0057	0
bin	0.0058	0
bin	0.0059	1
bin	0.006	0
bin	0.0061	0
bin	0.0062	0
bin	0.0063	0
bin	0.0064	0
bin	0.0065	0
bin	0.0066	0
bin	0.0067	0
bin	0.0068	0
bin	0.0069	0
bin	0.007	0

