file 18747075 1609214239                                        
version 2
run General-3-20201229-11:54:24-10692
attr configname General
attr datetime 20201229-11:54:24
attr experiment General
attr inifile multi_test_real.ini
attr iterationvars "$pathlosstype=\"LogNormalShadowing\""
attr iterationvarsf pathlosstype=LogNormalShadowing-
attr measurement "$pathlosstype=\"LogNormalShadowing\""
attr network myuav.UAVNetwork_Multi
attr processid 10692
attr repetition 0
attr replication #0
attr resultdir results
attr runnumber 3
attr seedset 3
itervar pathlosstype "\"LogNormalShadowing\""
param *.configurator.addStaticRoutes false
param **.arp.typename "\"GlobalArp\""
param **.basicHosts[*].forwarding false
param **.basicHosts[*].multicastForwarding false
param **.hostRouters[*].forwarding true
param **.hostRouters[*].multicastForwarding true
param *.numHosts 30
param *.numRouters 5
param *.configurator.config "xmldoc(\"multi_test.xml\")"
param *.configurator.dumpAddresses true
param *.configurator.dumpTopology true
param *.configurator.dumpLinks true
param *.configurator.dumpRoutes true
param *.configurator.dumpConfig "\"multi_test_dump.xml\""
param *.visualizer.osgVisualizer.typename "\"IntegratedOsgVisualizer\""
param *.visualizer.osgVisualizer.sceneVisualizer.clearColor "\"skyblue\""
param *.visualizer.osgVisualizer.sceneVisualizer.sceneImage "\"showcases/desert\""
param *.visualizer.osgVisualizer.sceneVisualizer.sceneImageSize 2000m
param *.visualizer.osgVisualizer.sceneVisualizer.axisLength 500m
param *.visualizer.osgVisualizer.sceneVisualizer.sceneMinX 0m
param *.visualizer.osgVisualizer.sceneVisualizer.sceneMinY 0m
param *.visualizer.osgVisualizer.sceneVisualizer.sceneMinZ 0m
param *.visualizer.osgVisualizer.sceneVisualizer.sceneMaxX 2000m
param *.visualizer.osgVisualizer.sceneVisualizer.sceneMaxY 2000m
param *.visualizer.osgVisualizer.sceneVisualizer.sceneMaxZ 1000m
param *.visualizer.*.networkRouteVisualizer.displayRoutes true
param *.visualizer.*.networkRouteVisualizer.packetFilter "\"ping*\""
param *.visualizer.*.networkRouteVisualizer.lineWidth 10
param *.visualizer.*.networkRouteVisualizer.lineShift 0
param *.visualizer.*.mobilityVisualizer.displayMovementTrails true
param *.visualizer.*.mobilityVisualizer.animationSpeed 1
param *.hostRouters[*].wlan[0].typename "\"WirelessInterface\""
param *.basicHosts[*].wlan[0].typename "\"WirelessInterface\""
param *.hostRouters[*].wlan[0].mac.typename "\"CsmaCaMac\""
param *.hostRouters[*].wlan[0].mac.ackTimeout 300us
param *.basicHosts[*].wlan[0].mac.typename "\"CsmaCaMac\""
param *.basicHosts[*].wlan[0].mac.ackTimeout 300us
param **.wlan[*].queue.typename "\"DropTailQueue\""
param *.hostRouters[*].wlan[0].mac.maxQueueSize 20000
param *.basicHosts[*].wlan[0].mac.maxQueueSize 10000
param *.radioMedium.typename "\"ApskScalarRadioMedium\""
param *.radioMedium.backgroundNoise.power -90dBm
param *.radioMedium.mediumLimitCache.carrierFrequency 2GHz
param *.hostRouters[*].wlan[0].radio.typename "\"ApskScalarRadio\""
param *.hostRouters[*].wlan[0].radio.carrierFrequency 2GHz
param *.basicHosts[*].wlan[0].radio.typename "\"ApskScalarRadio\""
param *.basicHosts[*].wlan[0].radio.carrierFrequency 2GHz
param **.ignorePartialInterference true
param *.hostRouters[*].wlan[0].radio.bandwidth 10MHz
param *.hostRouters[*].wlan[0].radio.transmitter.preambleDuration 10us
param *.hostRouters[*].wlan[0].radio.transmitter.headerLength 8b
param *.basicHosts[*].wlan[0].radio.bandwidth 10MHz
param *.basicHosts[*].wlan[0].radio.transmitter.preambleDuration 10us
param *.basicHosts[*].wlan[0].radio.transmitter.headerLength 8b
param *.hostRouters[*].wlan[0].radio.receiver.sensitivity -85dBm
param *.hostRouters[*].wlan[0].radio.receiver.energyDetection -85dBm
param *.hostRouters[*].wlan[0].radio.receiver.snirThreshold 4dB
param *.basicHosts[*].wlan[0].radio.receiver.sensitivity -85dBm
param *.basicHosts[*].wlan[0].radio.receiver.energyDetection -85dBm
param *.basicHosts[*].wlan[0].radio.receiver.snirThreshold 4dB
param **.hostRouters[*].**.bitrate 1Mbps
param **.basicHosts[*].**.bitrate 1Mbps
param **.hostRouters[*].wlan[*].radio.transmitter.power 20mW
param **.basicHosts[*].wlan[*].radio.transmitter.power 10mW
param *.radioMedium.pathLoss.typename "\"LogNormalShadowing\""
param *.physicalEnvironment.coordinateSystemModule "\"coordinateSystem\""
param *.*.mobility.coordinateSystemModule "\"coordinateSystem\""
param *.physicalEnvironment.config "xmldoc(\"obstacles.xml\")"
param *.radioMedium.obstacleLoss.typename "\"DielectricObstacleLoss\""
param **.hostRouters[*].app[*].typename "\"PingApp\""
param **.basicHosts[*].app[*].typename "\"PingApp\""
param *.hostRouters[*].numApps 1
param *.basicHosts[*].numApps 1
param **.basicHosts[*].app[*].count 1
param **.basicHosts[*].app[*].continuous true
param **.hostRouters[*].app[*].count 1
param **.hostRouters[*].app[*].continuous true
param **.hostRouters[0].app[*].destAddr "\"hostRouters[1] hostRouters[2] hostRouters[3] hostRouters[4]\""
param **.hostRouters[1].app[*].destAddr "\"hostRouters[0] hostRouters[2] hostRouters[3] hostRouters[4]\""
param **.hostRouters[2].app[*].destAddr "\"hostRouters[0] hostRouters[1] hostRouters[3] hostRouters[4]\""
param **.hostRouters[3].app[*].destAddr "\"hostRouters[0] hostRouters[1] hostRouters[2] hostRouters[4]\""
param **.hostRouters[4].app[*].destAddr "\"hostRouters[0] hostRouters[1] hostRouters[2] hostRouters[3]\""
param **.hostRouters[*].app[*].startTime uniform(5s,6s)
param **.hostRouters[*].app[*].printPing true
param **.basicHosts[*].app[*].destAddr "\"*\""
param **.basicHosts[*].app[*].startTime uniform(3s,4s)
param **.basicHosts[*].app[*].hopLimit 1
param **.basicHosts[*].app[*].printPing true
param **.hostRouters[*].mobility.typename "\"MassMobility\""
param **.hostRouters[*].mobility.initFromDisplayString false
param **.basicHosts[*].mobility.typename "\"MassMobility\""
param **.basicHosts[*].mobility.initFromDisplayString false
param **.hostRouters[*].osgModel "\"3d/drone.ive.80.scale.0,0,90.rot\""
param **.basicHosts[*].osgModel "\"3d/drone.ive.10.scale.0,0,90.rot\""
param **.hostRouters[*].mobility.initialMovementHeading "uniform(0deg, 360deg)"
param **.hostRouters[*].mobility.initialMovementElevation "uniform(-90deg, 90deg)"
param **.hostRouters[*].mobility.rotationAxisAngle uniform(-10deg,10deg)
param **.hostRouters[*].mobility.faceForward false
param **.basicHosts[*].mobility.initialMovementHeading "uniform(0deg, 360deg)"
param **.basicHosts[*].mobility.initialMovementElevation "uniform(-90deg, 90deg)"
param **.basicHosts[*].mobility.rotationAxisAngle uniform(-10deg,10deg)
param **.basicHosts[*].mobility.faceForward false
param **.hostRouters[*].mobility.speed truncnormal(50mps,8mps)
param **.hostRouters[*].mobility.changeInterval "truncnormal(2s, 1s)"
param **.hostRouters[*].mobility.angleDelta "normal(-20deg, 20deg)"
param **.basicHosts[*].mobility.speed "truncnormal(20mps, 4mps)"
param **.basicHosts[*].mobility.changeInterval "truncnormal(3s, 1s)"
param **.basicHosts[*].mobility.angleDelta "normal(-10deg, 10deg)"
param **.basicHosts[*].mobility.initialZ 200m
param **.basicHosts[*].mobility.constraintAreaMinZ 100m
param **.basicHosts[*].mobility.constraintAreaMaxZ 300m
param **.hostRouters[0].mobility.initialX 700m
param **.hostRouters[0].mobility.initialY 1000m
param **.hostRouters[1].mobility.initialX 1500m
param **.hostRouters[1].mobility.initialY 500m
param **.hostRouters[2].mobility.initialX 1500m
param **.hostRouters[2].mobility.initialY 1200m
param **.hostRouters[3].mobility.initialX 300m
param **.hostRouters[3].mobility.initialY 600m
param **.hostRouters[4].mobility.initialX 1000m
param **.hostRouters[4].mobility.initialY 1000m
param **.basicHosts[*].mobility.constraintAreaMinX 200m
param **.basicHosts[*].mobility.constraintAreaMaxX 1300m
param **.basicHosts[*].mobility.constraintAreaMinY 200m
param **.basicHosts[*].mobility.constraintAreaMaxY 1300m
param **.hostRouters[0].mobility.getOthersPosition true
param **.hostRouters[0].mobility.basicNodeNum 30
param **.hostRouters[0].mobility.routerNodeNum 5
param **.basicHosts[*].app[*].allowPingCluster true
param **.basicHosts[*].app[*].choosePingClusterPercent 99

vector 0 UAVNetwork_Multi.basicHosts[0].wlan[0].radio radioMode:vector ETV
attr interpolationmode sample-hold
attr source radioModeChanged
attr title "Radio mode, vector"
vector 1 UAVNetwork_Multi.basicHosts[1].wlan[0].radio radioMode:vector ETV
attr interpolationmode sample-hold
attr source radioModeChanged
attr title "Radio mode, vector"
vector 2 UAVNetwork_Multi.basicHosts[2].wlan[0].radio radioMode:vector ETV
attr interpolationmode sample-hold
attr source radioModeChanged
attr title "Radio mode, vector"
vector 3 UAVNetwork_Multi.basicHosts[3].wlan[0].radio radioMode:vector ETV
attr interpolationmode sample-hold
attr source radioModeChanged
attr title "Radio mode, vector"
vector 4 UAVNetwork_Multi.basicHosts[4].wlan[0].radio radioMode:vector ETV
attr interpolationmode sample-hold
attr source radioModeChanged
attr title "Radio mode, vector"
vector 5 UAVNetwork_Multi.basicHosts[5].wlan[0].radio radioMode:vector ETV
attr interpolationmode sample-hold
attr source radioModeChanged
attr title "Radio mode, vector"
vector 6 UAVNetwork_Multi.basicHosts[6].wlan[0].radio radioMode:vector ETV
attr interpolationmode sample-hold
attr source radioModeChanged
attr title "Radio mode, vector"
vector 7 UAVNetwork_Multi.basicHosts[7].wlan[0].radio radioMode:vector ETV
attr interpolationmode sample-hold
attr source radioModeChanged
attr title "Radio mode, vector"
vector 8 UAVNetwork_Multi.basicHosts[8].wlan[0].radio radioMode:vector ETV
attr interpolationmode sample-hold
attr source radioModeChanged
attr title "Radio mode, vector"
vector 9 UAVNetwork_Multi.basicHosts[9].wlan[0].radio radioMode:vector ETV
attr interpolationmode sample-hold
attr source radioModeChanged
attr title "Radio mode, vector"
vector 10 UAVNetwork_Multi.basicHosts[10].wlan[0].radio radioMode:vector ETV
attr interpolationmode sample-hold
attr source radioModeChanged
attr title "Radio mode, vector"
vector 11 UAVNetwork_Multi.basicHosts[11].wlan[0].radio radioMode:vector ETV
attr interpolationmode sample-hold
attr source radioModeChanged
attr title "Radio mode, vector"
vector 12 UAVNetwork_Multi.basicHosts[12].wlan[0].radio radioMode:vector ETV
attr interpolationmode sample-hold
attr source radioModeChanged
attr title "Radio mode, vector"
vector 13 UAVNetwork_Multi.basicHosts[13].wlan[0].radio radioMode:vector ETV
attr interpolationmode sample-hold
attr source radioModeChanged
attr title "Radio mode, vector"
vector 14 UAVNetwork_Multi.basicHosts[14].wlan[0].radio radioMode:vector ETV
attr interpolationmode sample-hold
attr source radioModeChanged
attr title "Radio mode, vector"
vector 15 UAVNetwork_Multi.basicHosts[15].wlan[0].radio radioMode:vector ETV
attr interpolationmode sample-hold
attr source radioModeChanged
attr title "Radio mode, vector"
vector 16 UAVNetwork_Multi.basicHosts[16].wlan[0].radio radioMode:vector ETV
attr interpolationmode sample-hold
attr source radioModeChanged
attr title "Radio mode, vector"
vector 17 UAVNetwork_Multi.basicHosts[17].wlan[0].radio radioMode:vector ETV
attr interpolationmode sample-hold
attr source radioModeChanged
attr title "Radio mode, vector"
vector 18 UAVNetwork_Multi.basicHosts[18].wlan[0].radio radioMode:vector ETV
attr interpolationmode sample-hold
attr source radioModeChanged
attr title "Radio mode, vector"
vector 19 UAVNetwork_Multi.basicHosts[19].wlan[0].radio radioMode:vector ETV
attr interpolationmode sample-hold
attr source radioModeChanged
attr title "Radio mode, vector"
vector 20 UAVNetwork_Multi.basicHosts[20].wlan[0].radio radioMode:vector ETV
attr interpolationmode sample-hold
attr source radioModeChanged
attr title "Radio mode, vector"
vector 21 UAVNetwork_Multi.basicHosts[21].wlan[0].radio radioMode:vector ETV
attr interpolationmode sample-hold
attr source radioModeChanged
attr title "Radio mode, vector"
vector 22 UAVNetwork_Multi.basicHosts[22].wlan[0].radio radioMode:vector ETV
attr interpolationmode sample-hold
attr source radioModeChanged
attr title "Radio mode, vector"
vector 23 UAVNetwork_Multi.basicHosts[23].wlan[0].radio radioMode:vector ETV
attr interpolationmode sample-hold
attr source radioModeChanged
attr title "Radio mode, vector"
vector 24 UAVNetwork_Multi.basicHosts[24].wlan[0].radio radioMode:vector ETV
attr interpolationmode sample-hold
attr source radioModeChanged
attr title "Radio mode, vector"
vector 25 UAVNetwork_Multi.basicHosts[25].wlan[0].radio radioMode:vector ETV
attr interpolationmode sample-hold
attr source radioModeChanged
attr title "Radio mode, vector"
vector 26 UAVNetwork_Multi.basicHosts[26].wlan[0].radio radioMode:vector ETV
attr interpolationmode sample-hold
attr source radioModeChanged
attr title "Radio mode, vector"
vector 27 UAVNetwork_Multi.basicHosts[27].wlan[0].radio radioMode:vector ETV
attr interpolationmode sample-hold
attr source radioModeChanged
attr title "Radio mode, vector"
vector 28 UAVNetwork_Multi.basicHosts[28].wlan[0].radio radioMode:vector ETV
attr interpolationmode sample-hold
attr source radioModeChanged
attr title "Radio mode, vector"
vector 29 UAVNetwork_Multi.basicHosts[29].wlan[0].radio radioMode:vector ETV
attr interpolationmode sample-hold
attr source radioModeChanged
attr title "Radio mode, vector"
vector 30 UAVNetwork_Multi.hostRouters[0].wlan[0].radio radioMode:vector ETV
attr interpolationmode sample-hold
attr source radioModeChanged
attr title "Radio mode, vector"
vector 31 UAVNetwork_Multi.hostRouters[1].wlan[0].radio radioMode:vector ETV
attr interpolationmode sample-hold
attr source radioModeChanged
attr title "Radio mode, vector"
vector 32 UAVNetwork_Multi.hostRouters[2].wlan[0].radio radioMode:vector ETV
attr interpolationmode sample-hold
attr source radioModeChanged
attr title "Radio mode, vector"
vector 33 UAVNetwork_Multi.hostRouters[3].wlan[0].radio radioMode:vector ETV
attr interpolationmode sample-hold
attr source radioModeChanged
attr title "Radio mode, vector"
vector 34 UAVNetwork_Multi.hostRouters[4].wlan[0].radio radioMode:vector ETV
attr interpolationmode sample-hold
attr source radioModeChanged
attr title "Radio mode, vector"
vector 35 UAVNetwork_Multi.basicHosts[0].wlan[0].radio receptionState:vector ETV
attr interpolationmode sample-hold
attr source receptionStateChanged
attr title "Radio reception state, vector"
vector 36 UAVNetwork_Multi.basicHosts[1].wlan[0].radio receptionState:vector ETV
attr interpolationmode sample-hold
attr source receptionStateChanged
attr title "Radio reception state, vector"
vector 37 UAVNetwork_Multi.basicHosts[2].wlan[0].radio receptionState:vector ETV
attr interpolationmode sample-hold
attr source receptionStateChanged
attr title "Radio reception state, vector"
vector 38 UAVNetwork_Multi.basicHosts[3].wlan[0].radio receptionState:vector ETV
attr interpolationmode sample-hold
attr source receptionStateChanged
attr title "Radio reception state, vector"
vector 39 UAVNetwork_Multi.basicHosts[4].wlan[0].radio receptionState:vector ETV
attr interpolationmode sample-hold
attr source receptionStateChanged
attr title "Radio reception state, vector"
vector 40 UAVNetwork_Multi.basicHosts[5].wlan[0].radio receptionState:vector ETV
attr interpolationmode sample-hold
attr source receptionStateChanged
attr title "Radio reception state, vector"
vector 41 UAVNetwork_Multi.basicHosts[6].wlan[0].radio receptionState:vector ETV
attr interpolationmode sample-hold
attr source receptionStateChanged
attr title "Radio reception state, vector"
vector 42 UAVNetwork_Multi.basicHosts[7].wlan[0].radio receptionState:vector ETV
attr interpolationmode sample-hold
attr source receptionStateChanged
attr title "Radio reception state, vector"
vector 43 UAVNetwork_Multi.basicHosts[8].wlan[0].radio receptionState:vector ETV
attr interpolationmode sample-hold
attr source receptionStateChanged
attr title "Radio reception state, vector"
vector 44 UAVNetwork_Multi.basicHosts[9].wlan[0].radio receptionState:vector ETV
attr interpolationmode sample-hold
attr source receptionStateChanged
attr title "Radio reception state, vector"
vector 45 UAVNetwork_Multi.basicHosts[10].wlan[0].radio receptionState:vector ETV
attr interpolationmode sample-hold
attr source receptionStateChanged
attr title "Radio reception state, vector"
vector 46 UAVNetwork_Multi.basicHosts[11].wlan[0].radio receptionState:vector ETV
attr interpolationmode sample-hold
attr source receptionStateChanged
attr title "Radio reception state, vector"
vector 47 UAVNetwork_Multi.basicHosts[12].wlan[0].radio receptionState:vector ETV
attr interpolationmode sample-hold
attr source receptionStateChanged
attr title "Radio reception state, vector"
vector 48 UAVNetwork_Multi.basicHosts[13].wlan[0].radio receptionState:vector ETV
attr interpolationmode sample-hold
attr source receptionStateChanged
attr title "Radio reception state, vector"
vector 49 UAVNetwork_Multi.basicHosts[14].wlan[0].radio receptionState:vector ETV
attr interpolationmode sample-hold
attr source receptionStateChanged
attr title "Radio reception state, vector"
vector 50 UAVNetwork_Multi.basicHosts[15].wlan[0].radio receptionState:vector ETV
attr interpolationmode sample-hold
attr source receptionStateChanged
attr title "Radio reception state, vector"
vector 51 UAVNetwork_Multi.basicHosts[16].wlan[0].radio receptionState:vector ETV
attr interpolationmode sample-hold
attr source receptionStateChanged
attr title "Radio reception state, vector"
vector 52 UAVNetwork_Multi.basicHosts[17].wlan[0].radio receptionState:vector ETV
attr interpolationmode sample-hold
attr source receptionStateChanged
attr title "Radio reception state, vector"
vector 53 UAVNetwork_Multi.basicHosts[18].wlan[0].radio receptionState:vector ETV
attr interpolationmode sample-hold
attr source receptionStateChanged
attr title "Radio reception state, vector"
vector 54 UAVNetwork_Multi.basicHosts[19].wlan[0].radio receptionState:vector ETV
attr interpolationmode sample-hold
attr source receptionStateChanged
attr title "Radio reception state, vector"
vector 55 UAVNetwork_Multi.basicHosts[20].wlan[0].radio receptionState:vector ETV
attr interpolationmode sample-hold
attr source receptionStateChanged
attr title "Radio reception state, vector"
vector 56 UAVNetwork_Multi.basicHosts[21].wlan[0].radio receptionState:vector ETV
attr interpolationmode sample-hold
attr source receptionStateChanged
attr title "Radio reception state, vector"
vector 57 UAVNetwork_Multi.basicHosts[22].wlan[0].radio receptionState:vector ETV
attr interpolationmode sample-hold
attr source receptionStateChanged
attr title "Radio reception state, vector"
vector 58 UAVNetwork_Multi.basicHosts[23].wlan[0].radio receptionState:vector ETV
attr interpolationmode sample-hold
attr source receptionStateChanged
attr title "Radio reception state, vector"
vector 59 UAVNetwork_Multi.basicHosts[24].wlan[0].radio receptionState:vector ETV
attr interpolationmode sample-hold
attr source receptionStateChanged
attr title "Radio reception state, vector"
vector 60 UAVNetwork_Multi.basicHosts[25].wlan[0].radio receptionState:vector ETV
attr interpolationmode sample-hold
attr source receptionStateChanged
attr title "Radio reception state, vector"
vector 61 UAVNetwork_Multi.basicHosts[26].wlan[0].radio receptionState:vector ETV
attr interpolationmode sample-hold
attr source receptionStateChanged
attr title "Radio reception state, vector"
vector 62 UAVNetwork_Multi.basicHosts[27].wlan[0].radio receptionState:vector ETV
attr interpolationmode sample-hold
attr source receptionStateChanged
attr title "Radio reception state, vector"
vector 63 UAVNetwork_Multi.basicHosts[28].wlan[0].radio receptionState:vector ETV
attr interpolationmode sample-hold
attr source receptionStateChanged
attr title "Radio reception state, vector"
vector 64 UAVNetwork_Multi.basicHosts[29].wlan[0].radio receptionState:vector ETV
attr interpolationmode sample-hold
attr source receptionStateChanged
attr title "Radio reception state, vector"
vector 65 UAVNetwork_Multi.hostRouters[0].wlan[0].radio receptionState:vector ETV
attr interpolationmode sample-hold
attr source receptionStateChanged
attr title "Radio reception state, vector"
vector 66 UAVNetwork_Multi.hostRouters[1].wlan[0].radio receptionState:vector ETV
attr interpolationmode sample-hold
attr source receptionStateChanged
attr title "Radio reception state, vector"
vector 67 UAVNetwork_Multi.hostRouters[2].wlan[0].radio receptionState:vector ETV
attr interpolationmode sample-hold
attr source receptionStateChanged
attr title "Radio reception state, vector"
vector 68 UAVNetwork_Multi.hostRouters[3].wlan[0].radio receptionState:vector ETV
attr interpolationmode sample-hold
attr source receptionStateChanged
attr title "Radio reception state, vector"
vector 69 UAVNetwork_Multi.hostRouters[4].wlan[0].radio receptionState:vector ETV
attr interpolationmode sample-hold
attr source receptionStateChanged
attr title "Radio reception state, vector"
vector 70 UAVNetwork_Multi.hostRouters[2].wlan[0].radio transmissionState:vector ETV
attr interpolationmode sample-hold
attr source transmissionStateChanged
attr title "Radio transmission state, vector"
vector 71 UAVNetwork_Multi.hostRouters[3].wlan[0].radio transmissionState:vector ETV
attr interpolationmode sample-hold
attr source transmissionStateChanged
attr title "Radio transmission state, vector"
vector 72 UAVNetwork_Multi.basicHosts[26].wlan[0].mac packetDropNotAddressedToUs:vector(packetBytes) ETV
attr interpolationmode none
attr source packetDropReasonIsNotAddressedToUs(packetDropped)
attr title "packet drop: not addressed to us, vector(packetBytes)"
vector 73 UAVNetwork_Multi.basicHosts[9].wlan[0].mac packetDropNotAddressedToUs:vector(packetBytes) ETV
attr interpolationmode none
attr source packetDropReasonIsNotAddressedToUs(packetDropped)
attr title "packet drop: not addressed to us, vector(packetBytes)"
vector 74 UAVNetwork_Multi.hostRouters[4].wlan[0].mac packetDropNotAddressedToUs:vector(packetBytes) ETV
attr interpolationmode none
attr source packetDropReasonIsNotAddressedToUs(packetDropped)
attr title "packet drop: not addressed to us, vector(packetBytes)"
vector 75 UAVNetwork_Multi.basicHosts[28].wlan[0].mac packetDropNotAddressedToUs:vector(packetBytes) ETV
attr interpolationmode none
attr source packetDropReasonIsNotAddressedToUs(packetDropped)
attr title "packet drop: not addressed to us, vector(packetBytes)"
vector 76 UAVNetwork_Multi.hostRouters[1].wlan[0].mac packetDropIncorrectlyReceived:vector(packetBytes) ETV
attr interpolationmode none
attr source packetDropReasonIsIncorrectlyReceived(packetDropped)
attr title "packet drop: incorrectly received, vector(packetBytes)"
vector 77 UAVNetwork_Multi.basicHosts[16].wlan[0].mac packetDropNotAddressedToUs:vector(packetBytes) ETV
attr interpolationmode none
attr source packetDropReasonIsNotAddressedToUs(packetDropped)
attr title "packet drop: not addressed to us, vector(packetBytes)"
vector 78 UAVNetwork_Multi.basicHosts[1].wlan[0].mac packetDropIncorrectlyReceived:vector(packetBytes) ETV
attr interpolationmode none
attr source packetDropReasonIsIncorrectlyReceived(packetDropped)
attr title "packet drop: incorrectly received, vector(packetBytes)"
vector 79 UAVNetwork_Multi.basicHosts[0].wlan[0].mac packetDropNotAddressedToUs:vector(packetBytes) ETV
attr interpolationmode none
attr source packetDropReasonIsNotAddressedToUs(packetDropped)
attr title "packet drop: not addressed to us, vector(packetBytes)"
vector 80 UAVNetwork_Multi.basicHosts[17].wlan[0].mac packetDropNotAddressedToUs:vector(packetBytes) ETV
attr interpolationmode none
attr source packetDropReasonIsNotAddressedToUs(packetDropped)
attr title "packet drop: not addressed to us, vector(packetBytes)"
vector 81 UAVNetwork_Multi.basicHosts[19].wlan[0].mac packetDropNotAddressedToUs:vector(packetBytes) ETV
attr interpolationmode none
attr source packetDropReasonIsNotAddressedToUs(packetDropped)
attr title "packet drop: not addressed to us, vector(packetBytes)"
vector 82 UAVNetwork_Multi.basicHosts[6].wlan[0].mac packetDropNotAddressedToUs:vector(packetBytes) ETV
attr interpolationmode none
attr source packetDropReasonIsNotAddressedToUs(packetDropped)
attr title "packet drop: not addressed to us, vector(packetBytes)"
vector 83 UAVNetwork_Multi.basicHosts[4].wlan[0].mac packetDropNotAddressedToUs:vector(packetBytes) ETV
attr interpolationmode none
attr source packetDropReasonIsNotAddressedToUs(packetDropped)
attr title "packet drop: not addressed to us, vector(packetBytes)"
vector 84 UAVNetwork_Multi.basicHosts[24].wlan[0].mac packetDropNotAddressedToUs:vector(packetBytes) ETV
attr interpolationmode none
attr source packetDropReasonIsNotAddressedToUs(packetDropped)
attr title "packet drop: not addressed to us, vector(packetBytes)"
vector 85 UAVNetwork_Multi.basicHosts[22].wlan[0].mac packetDropNotAddressedToUs:vector(packetBytes) ETV
attr interpolationmode none
attr source packetDropReasonIsNotAddressedToUs(packetDropped)
attr title "packet drop: not addressed to us, vector(packetBytes)"
vector 86 UAVNetwork_Multi.basicHosts[18].wlan[0].mac packetDropNotAddressedToUs:vector(packetBytes) ETV
attr interpolationmode none
attr source packetDropReasonIsNotAddressedToUs(packetDropped)
attr title "packet drop: not addressed to us, vector(packetBytes)"
vector 87 UAVNetwork_Multi.basicHosts[25].wlan[0].mac packetDropNotAddressedToUs:vector(packetBytes) ETV
attr interpolationmode none
attr source packetDropReasonIsNotAddressedToUs(packetDropped)
attr title "packet drop: not addressed to us, vector(packetBytes)"
vector 88 UAVNetwork_Multi.basicHosts[11].wlan[0].mac packetDropNotAddressedToUs:vector(packetBytes) ETV
attr interpolationmode none
attr source packetDropReasonIsNotAddressedToUs(packetDropped)
attr title "packet drop: not addressed to us, vector(packetBytes)"
vector 89 UAVNetwork_Multi.basicHosts[3].wlan[0].mac packetDropNotAddressedToUs:vector(packetBytes) ETV
attr interpolationmode none
attr source packetDropReasonIsNotAddressedToUs(packetDropped)
attr title "packet drop: not addressed to us, vector(packetBytes)"
vector 90 UAVNetwork_Multi.basicHosts[27].wlan[0].mac packetDropNotAddressedToUs:vector(packetBytes) ETV
attr interpolationmode none
attr source packetDropReasonIsNotAddressedToUs(packetDropped)
attr title "packet drop: not addressed to us, vector(packetBytes)"
vector 91 UAVNetwork_Multi.basicHosts[21].wlan[0].mac packetDropNotAddressedToUs:vector(packetBytes) ETV
attr interpolationmode none
attr source packetDropReasonIsNotAddressedToUs(packetDropped)
attr title "packet drop: not addressed to us, vector(packetBytes)"
vector 92 UAVNetwork_Multi.hostRouters[0].wlan[0].mac packetDropNotAddressedToUs:vector(packetBytes) ETV
attr interpolationmode none
attr source packetDropReasonIsNotAddressedToUs(packetDropped)
attr title "packet drop: not addressed to us, vector(packetBytes)"
vector 93 UAVNetwork_Multi.basicHosts[23].wlan[0].mac packetDropNotAddressedToUs:vector(packetBytes) ETV
attr interpolationmode none
attr source packetDropReasonIsNotAddressedToUs(packetDropped)
attr title "packet drop: not addressed to us, vector(packetBytes)"
vector 94 UAVNetwork_Multi.basicHosts[12].wlan[0].mac packetDropNotAddressedToUs:vector(packetBytes) ETV
attr interpolationmode none
attr source packetDropReasonIsNotAddressedToUs(packetDropped)
attr title "packet drop: not addressed to us, vector(packetBytes)"
vector 95 UAVNetwork_Multi.basicHosts[20].wlan[0].mac packetDropNotAddressedToUs:vector(packetBytes) ETV
attr interpolationmode none
attr source packetDropReasonIsNotAddressedToUs(packetDropped)
attr title "packet drop: not addressed to us, vector(packetBytes)"
vector 96 UAVNetwork_Multi.basicHosts[14].wlan[0].mac packetDropIncorrectlyReceived:vector(packetBytes) ETV
attr interpolationmode none
attr source packetDropReasonIsIncorrectlyReceived(packetDropped)
attr title "packet drop: incorrectly received, vector(packetBytes)"
vector 97 UAVNetwork_Multi.basicHosts[15].wlan[0].mac packetDropIncorrectlyReceived:vector(packetBytes) ETV
attr interpolationmode none
attr source packetDropReasonIsIncorrectlyReceived(packetDropped)
attr title "packet drop: incorrectly received, vector(packetBytes)"
vector 98 UAVNetwork_Multi.hostRouters[4].wlan[0].radio transmissionState:vector ETV
attr interpolationmode sample-hold
attr source transmissionStateChanged
attr title "Radio transmission state, vector"
vector 99 UAVNetwork_Multi.basicHosts[5].wlan[0].mac packetDropNotAddressedToUs:vector(packetBytes) ETV
attr interpolationmode none
attr source packetDropReasonIsNotAddressedToUs(packetDropped)
attr title "packet drop: not addressed to us, vector(packetBytes)"
vector 100 UAVNetwork_Multi.basicHosts[8].wlan[0].mac packetDropNotAddressedToUs:vector(packetBytes) ETV
attr interpolationmode none
attr source packetDropReasonIsNotAddressedToUs(packetDropped)
attr title "packet drop: not addressed to us, vector(packetBytes)"
vector 101 UAVNetwork_Multi.basicHosts[2].wlan[0].mac packetDropNotAddressedToUs:vector(packetBytes) ETV
attr interpolationmode none
attr source packetDropReasonIsNotAddressedToUs(packetDropped)
attr title "packet drop: not addressed to us, vector(packetBytes)"
vector 102 UAVNetwork_Multi.basicHosts[1].wlan[0].mac packetDropNotAddressedToUs:vector(packetBytes) ETV
attr interpolationmode none
attr source packetDropReasonIsNotAddressedToUs(packetDropped)
attr title "packet drop: not addressed to us, vector(packetBytes)"
vector 103 UAVNetwork_Multi.basicHosts[10].wlan[0].mac packetDropNotAddressedToUs:vector(packetBytes) ETV
attr interpolationmode none
attr source packetDropReasonIsNotAddressedToUs(packetDropped)
attr title "packet drop: not addressed to us, vector(packetBytes)"
vector 104 UAVNetwork_Multi.hostRouters[2].wlan[0].mac packetDropNotAddressedToUs:vector(packetBytes) ETV
attr interpolationmode none
attr source packetDropReasonIsNotAddressedToUs(packetDropped)
attr title "packet drop: not addressed to us, vector(packetBytes)"
vector 105 UAVNetwork_Multi.basicHosts[13].wlan[0].mac packetDropNotAddressedToUs:vector(packetBytes) ETV
attr interpolationmode none
attr source packetDropReasonIsNotAddressedToUs(packetDropped)
attr title "packet drop: not addressed to us, vector(packetBytes)"
vector 106 UAVNetwork_Multi.basicHosts[7].wlan[0].mac packetDropNotAddressedToUs:vector(packetBytes) ETV
attr interpolationmode none
attr source packetDropReasonIsNotAddressedToUs(packetDropped)
attr title "packet drop: not addressed to us, vector(packetBytes)"
vector 107 UAVNetwork_Multi.basicHosts[29].wlan[0].mac packetDropNotAddressedToUs:vector(packetBytes) ETV
attr interpolationmode none
attr source packetDropReasonIsNotAddressedToUs(packetDropped)
attr title "packet drop: not addressed to us, vector(packetBytes)"
vector 108 UAVNetwork_Multi.hostRouters[1].wlan[0].mac packetDropNotAddressedToUs:vector(packetBytes) ETV
attr interpolationmode none
attr source packetDropReasonIsNotAddressedToUs(packetDropped)
attr title "packet drop: not addressed to us, vector(packetBytes)"
vector 109 UAVNetwork_Multi.basicHosts[14].wlan[0].mac packetDropNotAddressedToUs:vector(packetBytes) ETV
attr interpolationmode none
attr source packetDropReasonIsNotAddressedToUs(packetDropped)
attr title "packet drop: not addressed to us, vector(packetBytes)"
vector 110 UAVNetwork_Multi.hostRouters[3].wlan[0].mac packetDropNotAddressedToUs:vector(packetBytes) ETV
attr interpolationmode none
attr source packetDropReasonIsNotAddressedToUs(packetDropped)
attr title "packet drop: not addressed to us, vector(packetBytes)"
vector 111 UAVNetwork_Multi.hostRouters[1].wlan[0].radio transmissionState:vector ETV
attr interpolationmode sample-hold
attr source transmissionStateChanged
attr title "Radio transmission state, vector"
vector 112 UAVNetwork_Multi.basicHosts[20].wlan[0].mac packetDropIncorrectlyReceived:vector(packetBytes) ETV
attr interpolationmode none
attr source packetDropReasonIsIncorrectlyReceived(packetDropped)
attr title "packet drop: incorrectly received, vector(packetBytes)"
vector 113 UAVNetwork_Multi.hostRouters[4].wlan[0].mac packetDropIncorrectlyReceived:vector(packetBytes) ETV
attr interpolationmode none
attr source packetDropReasonIsIncorrectlyReceived(packetDropped)
attr title "packet drop: incorrectly received, vector(packetBytes)"
vector 114 UAVNetwork_Multi.basicHosts[29].wlan[0].mac packetDropIncorrectlyReceived:vector(packetBytes) ETV
attr interpolationmode none
attr source packetDropReasonIsIncorrectlyReceived(packetDropped)
attr title "packet drop: incorrectly received, vector(packetBytes)"
vector 115 UAVNetwork_Multi.basicHosts[13].wlan[0].mac packetDropIncorrectlyReceived:vector(packetBytes) ETV
attr interpolationmode none
attr source packetDropReasonIsIncorrectlyReceived(packetDropped)
attr title "packet drop: incorrectly received, vector(packetBytes)"
vector 116 UAVNetwork_Multi.hostRouters[0].wlan[0].radio transmissionState:vector ETV
attr interpolationmode sample-hold
attr source transmissionStateChanged
attr title "Radio transmission state, vector"
vector 117 UAVNetwork_Multi.basicHosts[15].wlan[0].mac packetDropNotAddressedToUs:vector(packetBytes) ETV
attr interpolationmode none
attr source packetDropReasonIsNotAddressedToUs(packetDropped)
attr title "packet drop: not addressed to us, vector(packetBytes)"
vector 118 UAVNetwork_Multi.hostRouters[2].wlan[0].mac packetDropIncorrectlyReceived:vector(packetBytes) ETV
attr interpolationmode none
attr source packetDropReasonIsIncorrectlyReceived(packetDropped)
attr title "packet drop: incorrectly received, vector(packetBytes)"
vector 119 UAVNetwork_Multi.basicHosts[2].wlan[0].mac packetDropIncorrectlyReceived:vector(packetBytes) ETV
attr interpolationmode none
attr source packetDropReasonIsIncorrectlyReceived(packetDropped)
attr title "packet drop: incorrectly received, vector(packetBytes)"
vector 120 UAVNetwork_Multi.basicHosts[27].wlan[0].mac packetDropIncorrectlyReceived:vector(packetBytes) ETV
attr interpolationmode none
attr source packetDropReasonIsIncorrectlyReceived(packetDropped)
attr title "packet drop: incorrectly received, vector(packetBytes)"
vector 121 UAVNetwork_Multi.basicHosts[11].wlan[0].mac packetDropIncorrectlyReceived:vector(packetBytes) ETV
attr interpolationmode none
attr source packetDropReasonIsIncorrectlyReceived(packetDropped)
attr title "packet drop: incorrectly received, vector(packetBytes)"
vector 122 UAVNetwork_Multi.basicHosts[12].wlan[0].mac packetDropIncorrectlyReceived:vector(packetBytes) ETV
attr interpolationmode none
attr source packetDropReasonIsIncorrectlyReceived(packetDropped)
attr title "packet drop: incorrectly received, vector(packetBytes)"
vector 123 UAVNetwork_Multi.basicHosts[26].wlan[0].mac packetDropIncorrectlyReceived:vector(packetBytes) ETV
attr interpolationmode none
attr source packetDropReasonIsIncorrectlyReceived(packetDropped)
attr title "packet drop: incorrectly received, vector(packetBytes)"
vector 124 UAVNetwork_Multi.basicHosts[9].wlan[0].mac packetDropIncorrectlyReceived:vector(packetBytes) ETV
attr interpolationmode none
attr source packetDropReasonIsIncorrectlyReceived(packetDropped)
attr title "packet drop: incorrectly received, vector(packetBytes)"
vector 125 UAVNetwork_Multi.basicHosts[28].wlan[0].mac packetDropIncorrectlyReceived:vector(packetBytes) ETV
attr interpolationmode none
attr source packetDropReasonIsIncorrectlyReceived(packetDropped)
attr title "packet drop: incorrectly received, vector(packetBytes)"
vector 126 UAVNetwork_Multi.basicHosts[16].wlan[0].mac packetDropIncorrectlyReceived:vector(packetBytes) ETV
attr interpolationmode none
attr source packetDropReasonIsIncorrectlyReceived(packetDropped)
attr title "packet drop: incorrectly received, vector(packetBytes)"
vector 127 UAVNetwork_Multi.basicHosts[0].wlan[0].mac packetDropIncorrectlyReceived:vector(packetBytes) ETV
attr interpolationmode none
attr source packetDropReasonIsIncorrectlyReceived(packetDropped)
attr title "packet drop: incorrectly received, vector(packetBytes)"
vector 128 UAVNetwork_Multi.basicHosts[7].wlan[0].mac packetDropIncorrectlyReceived:vector(packetBytes) ETV
attr interpolationmode none
attr source packetDropReasonIsIncorrectlyReceived(packetDropped)
attr title "packet drop: incorrectly received, vector(packetBytes)"
vector 129 UAVNetwork_Multi.basicHosts[10].wlan[0].mac packetDropIncorrectlyReceived:vector(packetBytes) ETV
attr interpolationmode none
attr source packetDropReasonIsIncorrectlyReceived(packetDropped)
attr title "packet drop: incorrectly received, vector(packetBytes)"
vector 130 UAVNetwork_Multi.basicHosts[22].wlan[0].mac packetDropIncorrectlyReceived:vector(packetBytes) ETV
attr interpolationmode none
attr source packetDropReasonIsIncorrectlyReceived(packetDropped)
attr title "packet drop: incorrectly received, vector(packetBytes)"
vector 131 UAVNetwork_Multi.hostRouters[3].wlan[0].mac packetDropIncorrectlyReceived:vector(packetBytes) ETV
attr interpolationmode none
attr source packetDropReasonIsIncorrectlyReceived(packetDropped)
attr title "packet drop: incorrectly received, vector(packetBytes)"
vector 132 UAVNetwork_Multi.basicHosts[23].wlan[0].mac packetDropIncorrectlyReceived:vector(packetBytes) ETV
attr interpolationmode none
attr source packetDropReasonIsIncorrectlyReceived(packetDropped)
attr title "packet drop: incorrectly received, vector(packetBytes)"
vector 133 UAVNetwork_Multi.basicHosts[3].wlan[0].mac packetDropIncorrectlyReceived:vector(packetBytes) ETV
attr interpolationmode none
attr source packetDropReasonIsIncorrectlyReceived(packetDropped)
attr title "packet drop: incorrectly received, vector(packetBytes)"
vector 134 UAVNetwork_Multi.basicHosts[21].wlan[0].mac packetDropIncorrectlyReceived:vector(packetBytes) ETV
attr interpolationmode none
attr source packetDropReasonIsIncorrectlyReceived(packetDropped)
attr title "packet drop: incorrectly received, vector(packetBytes)"
vector 135 UAVNetwork_Multi.basicHosts[24].wlan[0].mac packetDropIncorrectlyReceived:vector(packetBytes) ETV
attr interpolationmode none
attr source packetDropReasonIsIncorrectlyReceived(packetDropped)
attr title "packet drop: incorrectly received, vector(packetBytes)"
vector 136 UAVNetwork_Multi.basicHosts[19].wlan[0].mac packetDropIncorrectlyReceived:vector(packetBytes) ETV
attr interpolationmode none
attr source packetDropReasonIsIncorrectlyReceived(packetDropped)
attr title "packet drop: incorrectly received, vector(packetBytes)"
vector 137 UAVNetwork_Multi.basicHosts[17].wlan[0].mac packetDropIncorrectlyReceived:vector(packetBytes) ETV
attr interpolationmode none
attr source packetDropReasonIsIncorrectlyReceived(packetDropped)
attr title "packet drop: incorrectly received, vector(packetBytes)"
vector 138 UAVNetwork_Multi.basicHosts[6].wlan[0].mac packetDropIncorrectlyReceived:vector(packetBytes) ETV
attr interpolationmode none
attr source packetDropReasonIsIncorrectlyReceived(packetDropped)
attr title "packet drop: incorrectly received, vector(packetBytes)"
vector 139 UAVNetwork_Multi.basicHosts[25].wlan[0].mac packetDropIncorrectlyReceived:vector(packetBytes) ETV
attr interpolationmode none
attr source packetDropReasonIsIncorrectlyReceived(packetDropped)
attr title "packet drop: incorrectly received, vector(packetBytes)"
vector 140 UAVNetwork_Multi.hostRouters[0].wlan[0].mac packetDropIncorrectlyReceived:vector(packetBytes) ETV
attr interpolationmode none
attr source packetDropReasonIsIncorrectlyReceived(packetDropped)
attr title "packet drop: incorrectly received, vector(packetBytes)"
vector 141 UAVNetwork_Multi.basicHosts[5].wlan[0].mac packetDropIncorrectlyReceived:vector(packetBytes) ETV
attr interpolationmode none
attr source packetDropReasonIsIncorrectlyReceived(packetDropped)
attr title "packet drop: incorrectly received, vector(packetBytes)"
vector 142 UAVNetwork_Multi.hostRouters[3].wlan[0].mac packetDropRetryLimitReached:vector(packetBytes) ETV
attr interpolationmode none
attr source packetDropReasonIsRetryLimitReached(packetDropped)
attr title "packet drop: retry limit reached, vector(packetBytes)"
vector 143 UAVNetwork_Multi.hostRouters[1].wlan[0].mac packetDropRetryLimitReached:vector(packetBytes) ETV
attr interpolationmode none
attr source packetDropReasonIsRetryLimitReached(packetDropped)
attr title "packet drop: retry limit reached, vector(packetBytes)"
vector 144 UAVNetwork_Multi.hostRouters[2].wlan[0].mac packetDropRetryLimitReached:vector(packetBytes) ETV
attr interpolationmode none
attr source packetDropReasonIsRetryLimitReached(packetDropped)
attr title "packet drop: retry limit reached, vector(packetBytes)"
vector 145 UAVNetwork_Multi.hostRouters[0].wlan[0].mac packetDropRetryLimitReached:vector(packetBytes) ETV
attr interpolationmode none
attr source packetDropReasonIsRetryLimitReached(packetDropped)
attr title "packet drop: retry limit reached, vector(packetBytes)"
vector 146 UAVNetwork_Multi.hostRouters[4].wlan[0].mac packetDropRetryLimitReached:vector(packetBytes) ETV
attr interpolationmode none
attr source packetDropReasonIsRetryLimitReached(packetDropped)
attr title "packet drop: retry limit reached, vector(packetBytes)"
vector 147 UAVNetwork_Multi.basicHosts[5].app[0] pingTxSeq:vector ETV
attr interpolationmode none
attr title "ping tx seq, vector"
vector 148 UAVNetwork_Multi.basicHosts[0].app[0] pingTxSeq:vector ETV
attr interpolationmode none
attr title "ping tx seq, vector"
vector 149 UAVNetwork_Multi.basicHosts[0].lo[0].lo rcvdPkFromHl:vector(packetBytes) ETV
attr interpolationmode none
attr source packetReceivedFromUpper
attr title "packets received from higher layer, vector(packetBytes)"
vector 150 UAVNetwork_Multi.basicHosts[0].lo[0].lo passedUpPk:vector(packetBytes) ETV
attr interpolationmode none
attr source packetSentToUpper
attr title "packets passed to higher layer, vector(packetBytes)"
vector 151 UAVNetwork_Multi.basicHosts[0].app[0] pingRxSeq:vector ETV
attr interpolationmode none
attr title "ping rx seq, vector"
vector 152 UAVNetwork_Multi.basicHosts[5].wlan[0].radio transmissionState:vector ETV
attr interpolationmode sample-hold
attr source transmissionStateChanged
attr title "Radio transmission state, vector"
vector 153 UAVNetwork_Multi.basicHosts[27].wlan[0].radio transmissionState:vector ETV
attr interpolationmode sample-hold
attr source transmissionStateChanged
attr title "Radio transmission state, vector"
vector 154 UAVNetwork_Multi.basicHosts[9].app[0] pingTxSeq:vector ETV
attr interpolationmode none
attr title "ping tx seq, vector"
vector 155 UAVNetwork_Multi.basicHosts[21].wlan[0].radio transmissionState:vector ETV
attr interpolationmode sample-hold
attr source transmissionStateChanged
attr title "Radio transmission state, vector"
vector 156 UAVNetwork_Multi.basicHosts[0].wlan[0].radio transmissionState:vector ETV
attr interpolationmode sample-hold
attr source transmissionStateChanged
attr title "Radio transmission state, vector"
vector 157 UAVNetwork_Multi.basicHosts[4].wlan[0].mac packetDropIncorrectlyReceived:vector(packetBytes) ETV
attr interpolationmode none
attr source packetDropReasonIsIncorrectlyReceived(packetDropped)
attr title "packet drop: incorrectly received, vector(packetBytes)"
vector 158 UAVNetwork_Multi.basicHosts[8].wlan[0].mac packetDropIncorrectlyReceived:vector(packetBytes) ETV
attr interpolationmode none
attr source packetDropReasonIsIncorrectlyReceived(packetDropped)
attr title "packet drop: incorrectly received, vector(packetBytes)"
vector 159 UAVNetwork_Multi.basicHosts[24].wlan[0].radio transmissionState:vector ETV
attr interpolationmode sample-hold
attr source transmissionStateChanged
attr title "Radio transmission state, vector"
vector 160 UAVNetwork_Multi.basicHosts[15].wlan[0].radio transmissionState:vector ETV
attr interpolationmode sample-hold
attr source transmissionStateChanged
attr title "Radio transmission state, vector"
vector 161 UAVNetwork_Multi.basicHosts[8].wlan[0].radio transmissionState:vector ETV
attr interpolationmode sample-hold
attr source transmissionStateChanged
attr title "Radio transmission state, vector"
vector 162 UAVNetwork_Multi.basicHosts[7].wlan[0].radio transmissionState:vector ETV
attr interpolationmode sample-hold
attr source transmissionStateChanged
attr title "Radio transmission state, vector"
vector 163 UAVNetwork_Multi.basicHosts[23].wlan[0].radio transmissionState:vector ETV
attr interpolationmode sample-hold
attr source transmissionStateChanged
attr title "Radio transmission state, vector"
vector 164 UAVNetwork_Multi.basicHosts[16].wlan[0].radio transmissionState:vector ETV
attr interpolationmode sample-hold
attr source transmissionStateChanged
attr title "Radio transmission state, vector"
vector 165 UAVNetwork_Multi.basicHosts[28].wlan[0].radio transmissionState:vector ETV
attr interpolationmode sample-hold
attr source transmissionStateChanged
attr title "Radio transmission state, vector"
vector 166 UAVNetwork_Multi.basicHosts[12].wlan[0].radio transmissionState:vector ETV
attr interpolationmode sample-hold
attr source transmissionStateChanged
attr title "Radio transmission state, vector"
vector 167 UAVNetwork_Multi.basicHosts[29].wlan[0].radio transmissionState:vector ETV
attr interpolationmode sample-hold
attr source transmissionStateChanged
attr title "Radio transmission state, vector"
vector 168 UAVNetwork_Multi.basicHosts[17].wlan[0].radio transmissionState:vector ETV
attr interpolationmode sample-hold
attr source transmissionStateChanged
attr title "Radio transmission state, vector"
vector 169 UAVNetwork_Multi.basicHosts[26].wlan[0].radio transmissionState:vector ETV
attr interpolationmode sample-hold
attr source transmissionStateChanged
attr title "Radio transmission state, vector"
vector 170 UAVNetwork_Multi.basicHosts[13].wlan[0].radio transmissionState:vector ETV
attr interpolationmode sample-hold
attr source transmissionStateChanged
attr title "Radio transmission state, vector"
vector 171 UAVNetwork_Multi.basicHosts[18].wlan[0].mac packetDropIncorrectlyReceived:vector(packetBytes) ETV
attr interpolationmode none
attr source packetDropReasonIsIncorrectlyReceived(packetDropped)
attr title "packet drop: incorrectly received, vector(packetBytes)"
vector 172 UAVNetwork_Multi.basicHosts[3].wlan[0].radio transmissionState:vector ETV
attr interpolationmode sample-hold
attr source transmissionStateChanged
attr title "Radio transmission state, vector"
vector 173 UAVNetwork_Multi.basicHosts[9].wlan[0].radio transmissionState:vector ETV
attr interpolationmode sample-hold
attr source transmissionStateChanged
attr title "Radio transmission state, vector"
vector 174 UAVNetwork_Multi.basicHosts[5].app[0] pingRxSeq:vector ETV
attr interpolationmode none
attr title "ping rx seq, vector"
vector 175 UAVNetwork_Multi.basicHosts[5].app[0] rtt:vector ETV
attr interpolationmode none
attr title "ping round-trip time, vector"
attr unit s
vector 176 UAVNetwork_Multi.basicHosts[1].wlan[0].radio transmissionState:vector ETV
attr interpolationmode sample-hold
attr source transmissionStateChanged
attr title "Radio transmission state, vector"
vector 177 UAVNetwork_Multi.basicHosts[22].wlan[0].radio transmissionState:vector ETV
attr interpolationmode sample-hold
attr source transmissionStateChanged
attr title "Radio transmission state, vector"
vector 178 UAVNetwork_Multi.basicHosts[10].wlan[0].radio transmissionState:vector ETV
attr interpolationmode sample-hold
attr source transmissionStateChanged
attr title "Radio transmission state, vector"
vector 179 UAVNetwork_Multi.basicHosts[20].wlan[0].radio transmissionState:vector ETV
attr interpolationmode sample-hold
attr source transmissionStateChanged
attr title "Radio transmission state, vector"
vector 180 UAVNetwork_Multi.basicHosts[11].wlan[0].radio transmissionState:vector ETV
attr interpolationmode sample-hold
attr source transmissionStateChanged
attr title "Radio transmission state, vector"
vector 181 UAVNetwork_Multi.basicHosts[2].wlan[0].radio transmissionState:vector ETV
attr interpolationmode sample-hold
attr source transmissionStateChanged
attr title "Radio transmission state, vector"
vector 182 UAVNetwork_Multi.basicHosts[14].wlan[0].radio transmissionState:vector ETV
attr interpolationmode sample-hold
attr source transmissionStateChanged
attr title "Radio transmission state, vector"
vector 183 UAVNetwork_Multi.basicHosts[26].app[0] pingTxSeq:vector ETV
attr interpolationmode none
attr title "ping tx seq, vector"
vector 184 UAVNetwork_Multi.basicHosts[9].app[0] pingRxSeq:vector ETV
attr interpolationmode none
attr title "ping rx seq, vector"
vector 185 UAVNetwork_Multi.basicHosts[9].app[0] rtt:vector ETV
attr interpolationmode none
attr title "ping round-trip time, vector"
attr unit s
vector 186 UAVNetwork_Multi.basicHosts[10].ipv4.ip packetDropForwardingDisabled:vector(packetBytes) ETV
attr interpolationmode none
attr source packetDropReasonIsForwardingDisabled(packetDropped)
attr title "packet drop: forwarding disabled, vector(packetBytes)"
vector 187 UAVNetwork_Multi.basicHosts[16].app[0] pingTxSeq:vector ETV
attr interpolationmode none
attr title "ping tx seq, vector"
vector 188 UAVNetwork_Multi.basicHosts[16].app[0] pingRxSeq:vector ETV
attr interpolationmode none
attr title "ping rx seq, vector"
vector 189 UAVNetwork_Multi.basicHosts[16].app[0] rtt:vector ETV
attr interpolationmode none
attr title "ping round-trip time, vector"
attr unit s
vector 190 UAVNetwork_Multi.basicHosts[6].app[0] pingTxSeq:vector ETV
attr interpolationmode none
attr title "ping tx seq, vector"
vector 191 UAVNetwork_Multi.basicHosts[6].wlan[0].radio transmissionState:vector ETV
attr interpolationmode sample-hold
attr source transmissionStateChanged
attr title "Radio transmission state, vector"
vector 192 UAVNetwork_Multi.basicHosts[13].app[0] pingTxSeq:vector ETV
attr interpolationmode none
attr title "ping tx seq, vector"
vector 193 UAVNetwork_Multi.basicHosts[19].wlan[0].radio transmissionState:vector ETV
attr interpolationmode sample-hold
attr source transmissionStateChanged
attr title "Radio transmission state, vector"
vector 194 UAVNetwork_Multi.basicHosts[15].app[0] pingTxSeq:vector ETV
attr interpolationmode none
attr title "ping tx seq, vector"
vector 195 UAVNetwork_Multi.basicHosts[6].app[0] pingRxSeq:vector ETV
attr interpolationmode none
attr title "ping rx seq, vector"
vector 196 UAVNetwork_Multi.basicHosts[6].app[0] rtt:vector ETV
attr interpolationmode none
attr title "ping round-trip time, vector"
attr unit s
vector 197 UAVNetwork_Multi.basicHosts[25].wlan[0].radio transmissionState:vector ETV
attr interpolationmode sample-hold
attr source transmissionStateChanged
attr title "Radio transmission state, vector"
vector 198 UAVNetwork_Multi.basicHosts[8].app[0] pingTxSeq:vector ETV
attr interpolationmode none
attr title "ping tx seq, vector"
vector 199 UAVNetwork_Multi.basicHosts[4].wlan[0].radio transmissionState:vector ETV
attr interpolationmode sample-hold
attr source transmissionStateChanged
attr title "Radio transmission state, vector"
vector 200 UAVNetwork_Multi.basicHosts[18].wlan[0].radio transmissionState:vector ETV
attr interpolationmode sample-hold
attr source transmissionStateChanged
attr title "Radio transmission state, vector"
vector 201 UAVNetwork_Multi.basicHosts[13].app[0] pingRxSeq:vector ETV
attr interpolationmode none
attr title "ping rx seq, vector"
vector 202 UAVNetwork_Multi.basicHosts[13].app[0] rtt:vector ETV
attr interpolationmode none
attr title "ping round-trip time, vector"
attr unit s
vector 203 UAVNetwork_Multi.basicHosts[15].app[0] pingRxSeq:vector ETV
attr interpolationmode none
attr title "ping rx seq, vector"
vector 204 UAVNetwork_Multi.basicHosts[15].app[0] rtt:vector ETV
attr interpolationmode none
attr title "ping round-trip time, vector"
attr unit s
vector 205 UAVNetwork_Multi.basicHosts[26].ipv4.ip packetDropForwardingDisabled:vector(packetBytes) ETV
attr interpolationmode none
attr source packetDropReasonIsForwardingDisabled(packetDropped)
attr title "packet drop: forwarding disabled, vector(packetBytes)"
vector 206 UAVNetwork_Multi.basicHosts[20].app[0] pingTxSeq:vector ETV
attr interpolationmode none
attr title "ping tx seq, vector"
vector 207 UAVNetwork_Multi.basicHosts[20].app[0] pingRxSeq:vector ETV
attr interpolationmode none
attr title "ping rx seq, vector"
vector 208 UAVNetwork_Multi.basicHosts[20].app[0] rtt:vector ETV
attr interpolationmode none
attr title "ping round-trip time, vector"
attr unit s
vector 209 UAVNetwork_Multi.basicHosts[20].app[0] numOutOfOrderArrivals:vector ETV
attr interpolationmode none
attr title "ping out-of-order arrivals, vector"
vector 210 UAVNetwork_Multi.basicHosts[20].app[0] numLost:vector ETV
attr interpolationmode none
attr title "pings lost, vector"
vector 211 UAVNetwork_Multi.basicHosts[10].app[0] pingTxSeq:vector ETV
attr interpolationmode none
attr title "ping tx seq, vector"
vector 212 UAVNetwork_Multi.basicHosts[10].app[0] pingRxSeq:vector ETV
attr interpolationmode none
attr title "ping rx seq, vector"
vector 213 UAVNetwork_Multi.basicHosts[10].app[0] rtt:vector ETV
attr interpolationmode none
attr title "ping round-trip time, vector"
attr unit s
vector 214 UAVNetwork_Multi.basicHosts[14].app[0] pingTxSeq:vector ETV
attr interpolationmode none
attr title "ping tx seq, vector"
vector 215 UAVNetwork_Multi.basicHosts[14].app[0] pingRxSeq:vector ETV
attr interpolationmode none
attr title "ping rx seq, vector"
vector 216 UAVNetwork_Multi.basicHosts[14].app[0] rtt:vector ETV
attr interpolationmode none
attr title "ping round-trip time, vector"
attr unit s
vector 217 UAVNetwork_Multi.basicHosts[21].app[0] pingTxSeq:vector ETV
attr interpolationmode none
attr title "ping tx seq, vector"
vector 218 UAVNetwork_Multi.basicHosts[7].app[0] pingTxSeq:vector ETV
attr interpolationmode none
attr title "ping tx seq, vector"
vector 219 UAVNetwork_Multi.basicHosts[12].ipv4.ip packetDropForwardingDisabled:vector(packetBytes) ETV
attr interpolationmode none
attr source packetDropReasonIsForwardingDisabled(packetDropped)
attr title "packet drop: forwarding disabled, vector(packetBytes)"
vector 220 UAVNetwork_Multi.basicHosts[16].ipv4.ip packetDropForwardingDisabled:vector(packetBytes) ETV
attr interpolationmode none
attr source packetDropReasonIsForwardingDisabled(packetDropped)
attr title "packet drop: forwarding disabled, vector(packetBytes)"
vector 221 UAVNetwork_Multi.basicHosts[18].app[0] pingTxSeq:vector ETV
attr interpolationmode none
attr title "ping tx seq, vector"
vector 222 UAVNetwork_Multi.basicHosts[4].ipv4.ip packetDropForwardingDisabled:vector(packetBytes) ETV
attr interpolationmode none
attr source packetDropReasonIsForwardingDisabled(packetDropped)
attr title "packet drop: forwarding disabled, vector(packetBytes)"
vector 223 UAVNetwork_Multi.basicHosts[1].app[0] pingTxSeq:vector ETV
attr interpolationmode none
attr title "ping tx seq, vector"
vector 224 UAVNetwork_Multi.basicHosts[1].app[0] pingRxSeq:vector ETV
attr interpolationmode none
attr title "ping rx seq, vector"
vector 225 UAVNetwork_Multi.basicHosts[1].app[0] rtt:vector ETV
attr interpolationmode none
attr title "ping round-trip time, vector"
attr unit s
vector 226 UAVNetwork_Multi.basicHosts[23].app[0] pingTxSeq:vector ETV
attr interpolationmode none
attr title "ping tx seq, vector"
vector 227 UAVNetwork_Multi.basicHosts[17].app[0] pingTxSeq:vector ETV
attr interpolationmode none
attr title "ping tx seq, vector"
vector 228 UAVNetwork_Multi.basicHosts[6].ipv4.ip packetDropForwardingDisabled:vector(packetBytes) ETV
attr interpolationmode none
attr source packetDropReasonIsForwardingDisabled(packetDropped)
attr title "packet drop: forwarding disabled, vector(packetBytes)"
vector 229 UAVNetwork_Multi.basicHosts[12].app[0] pingTxSeq:vector ETV
attr interpolationmode none
attr title "ping tx seq, vector"
vector 230 UAVNetwork_Multi.basicHosts[12].wlan[0].mac packetDropRetryLimitReached:vector(packetBytes) ETV
attr interpolationmode none
attr source packetDropReasonIsRetryLimitReached(packetDropped)
attr title "packet drop: retry limit reached, vector(packetBytes)"
vector 231 UAVNetwork_Multi.basicHosts[19].app[0] pingTxSeq:vector ETV
attr interpolationmode none
attr title "ping tx seq, vector"
vector 232 UAVNetwork_Multi.basicHosts[4].app[0] pingTxSeq:vector ETV
attr interpolationmode none
attr title "ping tx seq, vector"
vector 233 UAVNetwork_Multi.basicHosts[3].app[0] pingTxSeq:vector ETV
attr interpolationmode none
attr title "ping tx seq, vector"
vector 234 UAVNetwork_Multi.basicHosts[2].app[0] pingTxSeq:vector ETV
attr interpolationmode none
attr title "ping tx seq, vector"
vector 235 UAVNetwork_Multi.basicHosts[4].app[0] pingRxSeq:vector ETV
attr interpolationmode none
attr title "ping rx seq, vector"
vector 236 UAVNetwork_Multi.basicHosts[4].app[0] rtt:vector ETV
attr interpolationmode none
attr title "ping round-trip time, vector"
attr unit s
vector 237 UAVNetwork_Multi.basicHosts[2].app[0] pingRxSeq:vector ETV
attr interpolationmode none
attr title "ping rx seq, vector"
vector 238 UAVNetwork_Multi.basicHosts[2].app[0] rtt:vector ETV
attr interpolationmode none
attr title "ping round-trip time, vector"
attr unit s
vector 239 UAVNetwork_Multi.basicHosts[28].app[0] pingTxSeq:vector ETV
attr interpolationmode none
attr title "ping tx seq, vector"
vector 240 UAVNetwork_Multi.basicHosts[28].app[0] pingRxSeq:vector ETV
attr interpolationmode none
attr title "ping rx seq, vector"
vector 241 UAVNetwork_Multi.basicHosts[28].app[0] rtt:vector ETV
attr interpolationmode none
attr title "ping round-trip time, vector"
attr unit s
vector 242 UAVNetwork_Multi.basicHosts[29].app[0] pingTxSeq:vector ETV
attr interpolationmode none
attr title "ping tx seq, vector"
vector 243 UAVNetwork_Multi.basicHosts[25].app[0] pingTxSeq:vector ETV
attr interpolationmode none
attr title "ping tx seq, vector"
vector 244 UAVNetwork_Multi.basicHosts[11].app[0] pingTxSeq:vector ETV
attr interpolationmode none
attr title "ping tx seq, vector"
vector 245 UAVNetwork_Multi.basicHosts[22].app[0] pingTxSeq:vector ETV
attr interpolationmode none
attr title "ping tx seq, vector"
vector 246 UAVNetwork_Multi.basicHosts[11].app[0] pingRxSeq:vector ETV
attr interpolationmode none
attr title "ping rx seq, vector"
vector 247 UAVNetwork_Multi.basicHosts[11].app[0] rtt:vector ETV
attr interpolationmode none
attr title "ping round-trip time, vector"
attr unit s
vector 248 UAVNetwork_Multi.basicHosts[22].app[0] pingRxSeq:vector ETV
attr interpolationmode none
attr title "ping rx seq, vector"
vector 249 UAVNetwork_Multi.basicHosts[22].app[0] rtt:vector ETV
attr interpolationmode none
attr title "ping round-trip time, vector"
attr unit s
vector 250 UAVNetwork_Multi.basicHosts[24].app[0] pingTxSeq:vector ETV
attr interpolationmode none
attr title "ping tx seq, vector"
vector 251 UAVNetwork_Multi.basicHosts[24].app[0] pingRxSeq:vector ETV
attr interpolationmode none
attr title "ping rx seq, vector"
vector 252 UAVNetwork_Multi.basicHosts[24].app[0] rtt:vector ETV
attr interpolationmode none
attr title "ping round-trip time, vector"
attr unit s
vector 253 UAVNetwork_Multi.basicHosts[27].app[0] pingTxSeq:vector ETV
attr interpolationmode none
attr title "ping tx seq, vector"
vector 254 UAVNetwork_Multi.basicHosts[27].app[0] pingRxSeq:vector ETV
attr interpolationmode none
attr title "ping rx seq, vector"
vector 255 UAVNetwork_Multi.basicHosts[27].app[0] rtt:vector ETV
attr interpolationmode none
attr title "ping round-trip time, vector"
attr unit s
vector 256 UAVNetwork_Multi.basicHosts[0].app[0] rtt:vector ETV
attr interpolationmode none
attr title "ping round-trip time, vector"
attr unit s
vector 257 UAVNetwork_Multi.basicHosts[26].app[0] pingRxSeq:vector ETV
attr interpolationmode none
attr title "ping rx seq, vector"
vector 258 UAVNetwork_Multi.basicHosts[26].app[0] rtt:vector ETV
attr interpolationmode none
attr title "ping round-trip time, vector"
attr unit s
vector 259 UAVNetwork_Multi.basicHosts[26].app[0] numLost:vector ETV
attr interpolationmode none
attr title "pings lost, vector"
vector 260 UAVNetwork_Multi.basicHosts[13].app[0] numOutOfOrderArrivals:vector ETV
attr interpolationmode none
attr title "ping out-of-order arrivals, vector"
vector 261 UAVNetwork_Multi.basicHosts[13].app[0] numLost:vector ETV
attr interpolationmode none
attr title "pings lost, vector"
vector 262 UAVNetwork_Multi.basicHosts[20].wlan[0].mac packetDropRetryLimitReached:vector(packetBytes) ETV
attr interpolationmode none
attr source packetDropReasonIsRetryLimitReached(packetDropped)
attr title "packet drop: retry limit reached, vector(packetBytes)"
vector 263 UAVNetwork_Multi.basicHosts[7].app[0] pingRxSeq:vector ETV
attr interpolationmode none
attr title "ping rx seq, vector"
vector 264 UAVNetwork_Multi.basicHosts[7].app[0] rtt:vector ETV
attr interpolationmode none
attr title "ping round-trip time, vector"
attr unit s
vector 265 UAVNetwork_Multi.basicHosts[7].app[0] numLost:vector ETV
attr interpolationmode none
attr title "pings lost, vector"
vector 266 UAVNetwork_Multi.basicHosts[20].ipv4.ip packetDropForwardingDisabled:vector(packetBytes) ETV
attr interpolationmode none
attr source packetDropReasonIsForwardingDisabled(packetDropped)
attr title "packet drop: forwarding disabled, vector(packetBytes)"
vector 267 UAVNetwork_Multi.basicHosts[17].app[0] pingRxSeq:vector ETV
attr interpolationmode none
attr title "ping rx seq, vector"
vector 268 UAVNetwork_Multi.basicHosts[17].app[0] rtt:vector ETV
attr interpolationmode none
attr title "ping round-trip time, vector"
attr unit s
vector 269 UAVNetwork_Multi.basicHosts[17].app[0] numLost:vector ETV
attr interpolationmode none
attr title "pings lost, vector"
vector 270 UAVNetwork_Multi.basicHosts[16].wlan[0].mac packetDropRetryLimitReached:vector(packetBytes) ETV
attr interpolationmode none
attr source packetDropReasonIsRetryLimitReached(packetDropped)
attr title "packet drop: retry limit reached, vector(packetBytes)"
vector 271 UAVNetwork_Multi.basicHosts[15].wlan[0].mac packetDropRetryLimitReached:vector(packetBytes) ETV
attr interpolationmode none
attr source packetDropReasonIsRetryLimitReached(packetDropped)
attr title "packet drop: retry limit reached, vector(packetBytes)"
vector 272 UAVNetwork_Multi.basicHosts[27].wlan[0].mac packetDropRetryLimitReached:vector(packetBytes) ETV
attr interpolationmode none
attr source packetDropReasonIsRetryLimitReached(packetDropped)
attr title "packet drop: retry limit reached, vector(packetBytes)"
vector 273 UAVNetwork_Multi.basicHosts[21].wlan[0].mac packetDropRetryLimitReached:vector(packetBytes) ETV
attr interpolationmode none
attr source packetDropReasonIsRetryLimitReached(packetDropped)
attr title "packet drop: retry limit reached, vector(packetBytes)"
vector 274 UAVNetwork_Multi.basicHosts[23].ipv4.ip packetDropForwardingDisabled:vector(packetBytes) ETV
attr interpolationmode none
attr source packetDropReasonIsForwardingDisabled(packetDropped)
attr title "packet drop: forwarding disabled, vector(packetBytes)"
vector 275 UAVNetwork_Multi.basicHosts[3].app[0] pingRxSeq:vector ETV
attr interpolationmode none
attr title "ping rx seq, vector"
vector 276 UAVNetwork_Multi.basicHosts[3].app[0] rtt:vector ETV
attr interpolationmode none
attr title "ping round-trip time, vector"
attr unit s
vector 277 UAVNetwork_Multi.basicHosts[3].app[0] numLost:vector ETV
attr interpolationmode none
attr title "pings lost, vector"
vector 278 UAVNetwork_Multi.basicHosts[27].ipv4.ip packetDropForwardingDisabled:vector(packetBytes) ETV
attr interpolationmode none
attr source packetDropReasonIsForwardingDisabled(packetDropped)
attr title "packet drop: forwarding disabled, vector(packetBytes)"
vector 279 UAVNetwork_Multi.basicHosts[6].wlan[0].mac packetDropRetryLimitReached:vector(packetBytes) ETV
attr interpolationmode none
attr source packetDropReasonIsRetryLimitReached(packetDropped)
attr title "packet drop: retry limit reached, vector(packetBytes)"
vector 280 UAVNetwork_Multi.basicHosts[21].ipv4.ip packetDropForwardingDisabled:vector(packetBytes) ETV
attr interpolationmode none
attr source packetDropReasonIsForwardingDisabled(packetDropped)
attr title "packet drop: forwarding disabled, vector(packetBytes)"
vector 281 UAVNetwork_Multi.basicHosts[18].wlan[0].mac packetDropRetryLimitReached:vector(packetBytes) ETV
attr interpolationmode none
attr source packetDropReasonIsRetryLimitReached(packetDropped)
attr title "packet drop: retry limit reached, vector(packetBytes)"
vector 282 UAVNetwork_Multi.basicHosts[22].wlan[0].mac packetDropRetryLimitReached:vector(packetBytes) ETV
attr interpolationmode none
attr source packetDropReasonIsRetryLimitReached(packetDropped)
attr title "packet drop: retry limit reached, vector(packetBytes)"
vector 283 UAVNetwork_Multi.basicHosts[9].ipv4.ip packetDropForwardingDisabled:vector(packetBytes) ETV
attr interpolationmode none
attr source packetDropReasonIsForwardingDisabled(packetDropped)
attr title "packet drop: forwarding disabled, vector(packetBytes)"
vector 284 UAVNetwork_Multi.basicHosts[25].app[0] pingRxSeq:vector ETV
attr interpolationmode none
attr title "ping rx seq, vector"
vector 285 UAVNetwork_Multi.basicHosts[25].app[0] rtt:vector ETV
attr interpolationmode none
attr title "ping round-trip time, vector"
attr unit s
vector 286 UAVNetwork_Multi.basicHosts[25].app[0] numLost:vector ETV
attr interpolationmode none
attr title "pings lost, vector"
vector 287 UAVNetwork_Multi.basicHosts[25].app[0] numOutOfOrderArrivals:vector ETV
attr interpolationmode none
attr title "ping out-of-order arrivals, vector"
vector 288 UAVNetwork_Multi.basicHosts[4].wlan[0].mac packetDropRetryLimitReached:vector(packetBytes) ETV
attr interpolationmode none
attr source packetDropReasonIsRetryLimitReached(packetDropped)
attr title "packet drop: retry limit reached, vector(packetBytes)"
vector 289 UAVNetwork_Multi.hostRouters[1].app[0] pingTxSeq:vector ETV
attr interpolationmode none
attr title "ping tx seq, vector"
vector 290 UAVNetwork_Multi.hostRouters[3].app[0] pingTxSeq:vector ETV
attr interpolationmode none
attr title "ping tx seq, vector"
vector 291 UAVNetwork_Multi.basicHosts[15].app[0] numLost:vector ETV
attr interpolationmode none
attr title "pings lost, vector"
vector 292 UAVNetwork_Multi.hostRouters[1].app[0] pingRxSeq:vector ETV
attr interpolationmode none
attr title "ping rx seq, vector"
vector 293 UAVNetwork_Multi.hostRouters[1].app[0] rtt:vector ETV
attr interpolationmode none
attr title "ping round-trip time, vector"
attr unit s
vector 294 UAVNetwork_Multi.basicHosts[28].ipv4.ip packetDropForwardingDisabled:vector(packetBytes) ETV
attr interpolationmode none
attr source packetDropReasonIsForwardingDisabled(packetDropped)
attr title "packet drop: forwarding disabled, vector(packetBytes)"
vector 295 UAVNetwork_Multi.basicHosts[21].app[0] pingRxSeq:vector ETV
attr interpolationmode none
attr title "ping rx seq, vector"
vector 296 UAVNetwork_Multi.basicHosts[21].app[0] rtt:vector ETV
attr interpolationmode none
attr title "ping round-trip time, vector"
attr unit s
vector 297 UAVNetwork_Multi.basicHosts[21].app[0] numLost:vector ETV
attr interpolationmode none
attr title "pings lost, vector"
vector 298 UAVNetwork_Multi.basicHosts[1].lo[0].lo rcvdPkFromHl:vector(packetBytes) ETV
attr interpolationmode none
attr source packetReceivedFromUpper
attr title "packets received from higher layer, vector(packetBytes)"
vector 299 UAVNetwork_Multi.basicHosts[1].lo[0].lo passedUpPk:vector(packetBytes) ETV
attr interpolationmode none
attr source packetSentToUpper
attr title "packets passed to higher layer, vector(packetBytes)"
vector 300 UAVNetwork_Multi.basicHosts[23].app[0] pingRxSeq:vector ETV
attr interpolationmode none
attr title "ping rx seq, vector"
vector 301 UAVNetwork_Multi.basicHosts[23].app[0] rtt:vector ETV
attr interpolationmode none
attr title "ping round-trip time, vector"
attr unit s
vector 302 UAVNetwork_Multi.basicHosts[23].app[0] numLost:vector ETV
attr interpolationmode none
attr title "pings lost, vector"
vector 303 UAVNetwork_Multi.basicHosts[23].app[0] numOutOfOrderArrivals:vector ETV
attr interpolationmode none
attr title "ping out-of-order arrivals, vector"
vector 304 UAVNetwork_Multi.basicHosts[12].app[0] pingRxSeq:vector ETV
attr interpolationmode none
attr title "ping rx seq, vector"
vector 305 UAVNetwork_Multi.basicHosts[12].app[0] rtt:vector ETV
attr interpolationmode none
attr title "ping round-trip time, vector"
attr unit s
vector 306 UAVNetwork_Multi.basicHosts[12].app[0] numLost:vector ETV
attr interpolationmode none
attr title "pings lost, vector"
vector 307 UAVNetwork_Multi.basicHosts[12].app[0] numOutOfOrderArrivals:vector ETV
attr interpolationmode none
attr title "ping out-of-order arrivals, vector"
vector 308 UAVNetwork_Multi.basicHosts[4].app[0] numLost:vector ETV
attr interpolationmode none
attr title "pings lost, vector"
vector 309 UAVNetwork_Multi.hostRouters[0].app[0] pingTxSeq:vector ETV
attr interpolationmode none
attr title "ping tx seq, vector"
vector 310 UAVNetwork_Multi.hostRouters[0].app[0] pingRxSeq:vector ETV
attr interpolationmode none
attr title "ping rx seq, vector"
vector 311 UAVNetwork_Multi.hostRouters[0].app[0] rtt:vector ETV
attr interpolationmode none
attr title "ping round-trip time, vector"
attr unit s
vector 312 UAVNetwork_Multi.hostRouters[0].app[0] numOutOfOrderArrivals:vector ETV
attr interpolationmode none
attr title "ping out-of-order arrivals, vector"
vector 313 UAVNetwork_Multi.hostRouters[0].app[0] numLost:vector ETV
attr interpolationmode none
attr title "pings lost, vector"
vector 314 UAVNetwork_Multi.hostRouters[4].app[0] pingTxSeq:vector ETV
attr interpolationmode none
attr title "ping tx seq, vector"
vector 315 UAVNetwork_Multi.hostRouters[4].app[0] pingRxSeq:vector ETV
attr interpolationmode none
attr title "ping rx seq, vector"
vector 316 UAVNetwork_Multi.hostRouters[4].app[0] rtt:vector ETV
attr interpolationmode none
attr title "ping round-trip time, vector"
attr unit s
vector 317 UAVNetwork_Multi.hostRouters[4].app[0] numOutOfOrderArrivals:vector ETV
attr interpolationmode none
attr title "ping out-of-order arrivals, vector"
vector 318 UAVNetwork_Multi.hostRouters[4].app[0] numLost:vector ETV
attr interpolationmode none
attr title "pings lost, vector"
vector 319 UAVNetwork_Multi.basicHosts[29].app[0] pingRxSeq:vector ETV
attr interpolationmode none
attr title "ping rx seq, vector"
vector 320 UAVNetwork_Multi.basicHosts[29].app[0] rtt:vector ETV
attr interpolationmode none
attr title "ping round-trip time, vector"
attr unit s
vector 321 UAVNetwork_Multi.basicHosts[29].app[0] numLost:vector ETV
attr interpolationmode none
attr title "pings lost, vector"
vector 322 UAVNetwork_Multi.basicHosts[0].ipv4.ip packetDropForwardingDisabled:vector(packetBytes) ETV
attr interpolationmode none
attr source packetDropReasonIsForwardingDisabled(packetDropped)
attr title "packet drop: forwarding disabled, vector(packetBytes)"
vector 323 UAVNetwork_Multi.basicHosts[11].app[0] numLost:vector ETV
attr interpolationmode none
attr title "pings lost, vector"
vector 324 UAVNetwork_Multi.hostRouters[2].app[0] pingTxSeq:vector ETV
attr interpolationmode none
attr title "ping tx seq, vector"
vector 325 UAVNetwork_Multi.basicHosts[7].wlan[0].mac packetDropRetryLimitReached:vector(packetBytes) ETV
attr interpolationmode none
attr source packetDropReasonIsRetryLimitReached(packetDropped)
attr title "packet drop: retry limit reached, vector(packetBytes)"
vector 326 UAVNetwork_Multi.basicHosts[0].wlan[0].mac packetDropRetryLimitReached:vector(packetBytes) ETV
attr interpolationmode none
attr source packetDropReasonIsRetryLimitReached(packetDropped)
attr title "packet drop: retry limit reached, vector(packetBytes)"
vector 327 UAVNetwork_Multi.basicHosts[5].ipv4.ip packetDropForwardingDisabled:vector(packetBytes) ETV
attr interpolationmode none
attr source packetDropReasonIsForwardingDisabled(packetDropped)
attr title "packet drop: forwarding disabled, vector(packetBytes)"
vector 328 UAVNetwork_Multi.basicHosts[1].ipv4.ip packetDropForwardingDisabled:vector(packetBytes) ETV
attr interpolationmode none
attr source packetDropReasonIsForwardingDisabled(packetDropped)
attr title "packet drop: forwarding disabled, vector(packetBytes)"
vector 329 UAVNetwork_Multi.basicHosts[14].ipv4.ip packetDropForwardingDisabled:vector(packetBytes) ETV
attr interpolationmode none
attr source packetDropReasonIsForwardingDisabled(packetDropped)
attr title "packet drop: forwarding disabled, vector(packetBytes)"
vector 330 UAVNetwork_Multi.basicHosts[10].app[0] numLost:vector ETV
attr interpolationmode none
attr title "pings lost, vector"
vector 331 UAVNetwork_Multi.basicHosts[18].app[0] pingRxSeq:vector ETV
attr interpolationmode none
attr title "ping rx seq, vector"
vector 332 UAVNetwork_Multi.basicHosts[18].app[0] rtt:vector ETV
attr interpolationmode none
attr title "ping round-trip time, vector"
attr unit s
vector 333 UAVNetwork_Multi.basicHosts[18].app[0] numLost:vector ETV
attr interpolationmode none
attr title "pings lost, vector"
vector 334 UAVNetwork_Multi.basicHosts[17].app[0] numOutOfOrderArrivals:vector ETV
attr interpolationmode none
attr title "ping out-of-order arrivals, vector"
vector 335 UAVNetwork_Multi.hostRouters[3].app[0] pingRxSeq:vector ETV
attr interpolationmode none
attr title "ping rx seq, vector"
vector 336 UAVNetwork_Multi.hostRouters[3].app[0] rtt:vector ETV
attr interpolationmode none
attr title "ping round-trip time, vector"
attr unit s
vector 337 UAVNetwork_Multi.hostRouters[3].app[0] numLost:vector ETV
attr interpolationmode none
attr title "pings lost, vector"
vector 338 UAVNetwork_Multi.basicHosts[3].lo[0].lo rcvdPkFromHl:vector(packetBytes) ETV
attr interpolationmode none
attr source packetReceivedFromUpper
attr title "packets received from higher layer, vector(packetBytes)"
vector 339 UAVNetwork_Multi.basicHosts[3].lo[0].lo passedUpPk:vector(packetBytes) ETV
attr interpolationmode none
attr source packetSentToUpper
attr title "packets passed to higher layer, vector(packetBytes)"
vector 340 UAVNetwork_Multi.hostRouters[3].app[0] numOutOfOrderArrivals:vector ETV
attr interpolationmode none
attr title "ping out-of-order arrivals, vector"
vector 341 UAVNetwork_Multi.basicHosts[13].ipv4.ip packetDropForwardingDisabled:vector(packetBytes) ETV
attr interpolationmode none
attr source packetDropReasonIsForwardingDisabled(packetDropped)
attr title "packet drop: forwarding disabled, vector(packetBytes)"
vector 342 UAVNetwork_Multi.hostRouters[2].app[0] pingRxSeq:vector ETV
attr interpolationmode none
attr title "ping rx seq, vector"
vector 343 UAVNetwork_Multi.hostRouters[2].app[0] rtt:vector ETV
attr interpolationmode none
attr title "ping round-trip time, vector"
attr unit s
vector 344 UAVNetwork_Multi.hostRouters[2].app[0] numLost:vector ETV
attr interpolationmode none
attr title "pings lost, vector"
vector 345 UAVNetwork_Multi.basicHosts[27].app[0] numLost:vector ETV
attr interpolationmode none
attr title "pings lost, vector"
vector 346 UAVNetwork_Multi.basicHosts[7].ipv4.ip packetDropForwardingDisabled:vector(packetBytes) ETV
attr interpolationmode none
attr source packetDropReasonIsForwardingDisabled(packetDropped)
attr title "packet drop: forwarding disabled, vector(packetBytes)"
vector 347 UAVNetwork_Multi.basicHosts[6].app[0] numLost:vector ETV
attr interpolationmode none
attr title "pings lost, vector"
vector 348 UAVNetwork_Multi.basicHosts[2].ipv4.ip packetDropForwardingDisabled:vector(packetBytes) ETV
attr interpolationmode none
attr source packetDropReasonIsForwardingDisabled(packetDropped)
attr title "packet drop: forwarding disabled, vector(packetBytes)"
vector 349 UAVNetwork_Multi.basicHosts[8].app[0] pingRxSeq:vector ETV
attr interpolationmode none
attr title "ping rx seq, vector"
vector 350 UAVNetwork_Multi.basicHosts[8].app[0] rtt:vector ETV
attr interpolationmode none
attr title "ping round-trip time, vector"
attr unit s
vector 351 UAVNetwork_Multi.basicHosts[8].app[0] numLost:vector ETV
attr interpolationmode none
attr title "pings lost, vector"
vector 352 UAVNetwork_Multi.basicHosts[14].app[0] numLost:vector ETV
attr interpolationmode none
attr title "pings lost, vector"
vector 353 UAVNetwork_Multi.basicHosts[21].app[0] numOutOfOrderArrivals:vector ETV
attr interpolationmode none
attr title "ping out-of-order arrivals, vector"
vector 354 UAVNetwork_Multi.basicHosts[17].wlan[0].mac packetDropRetryLimitReached:vector(packetBytes) ETV
attr interpolationmode none
attr source packetDropReasonIsRetryLimitReached(packetDropped)
attr title "packet drop: retry limit reached, vector(packetBytes)"
vector 355 UAVNetwork_Multi.basicHosts[11].ipv4.ip packetDropForwardingDisabled:vector(packetBytes) ETV
attr interpolationmode none
attr source packetDropReasonIsForwardingDisabled(packetDropped)
attr title "packet drop: forwarding disabled, vector(packetBytes)"
vector 356 UAVNetwork_Multi.basicHosts[2].lo[0].lo rcvdPkFromHl:vector(packetBytes) ETV
attr interpolationmode none
attr source packetReceivedFromUpper
attr title "packets received from higher layer, vector(packetBytes)"
vector 357 UAVNetwork_Multi.basicHosts[2].lo[0].lo passedUpPk:vector(packetBytes) ETV
attr interpolationmode none
attr source packetSentToUpper
attr title "packets passed to higher layer, vector(packetBytes)"
vector 358 UAVNetwork_Multi.basicHosts[3].app[0] numOutOfOrderArrivals:vector ETV
attr interpolationmode none
attr title "ping out-of-order arrivals, vector"
vector 359 UAVNetwork_Multi.basicHosts[9].wlan[0].mac packetDropRetryLimitReached:vector(packetBytes) ETV
attr interpolationmode none
attr source packetDropReasonIsRetryLimitReached(packetDropped)
attr title "packet drop: retry limit reached, vector(packetBytes)"
vector 360 UAVNetwork_Multi.basicHosts[3].ipv4.ip packetDropForwardingDisabled:vector(packetBytes) ETV
attr interpolationmode none
attr source packetDropReasonIsForwardingDisabled(packetDropped)
attr title "packet drop: forwarding disabled, vector(packetBytes)"
vector 361 UAVNetwork_Multi.basicHosts[0].app[0] numLost:vector ETV
attr interpolationmode none
attr title "pings lost, vector"
vector 362 UAVNetwork_Multi.hostRouters[1].app[0] numLost:vector ETV
attr interpolationmode none
attr title "pings lost, vector"
vector 363 UAVNetwork_Multi.basicHosts[14].app[0] numOutOfOrderArrivals:vector ETV
attr interpolationmode none
attr title "ping out-of-order arrivals, vector"
vector 364 UAVNetwork_Multi.basicHosts[3].wlan[0].mac packetDropRetryLimitReached:vector(packetBytes) ETV
attr interpolationmode none
[...]
160	18198052 16040 438145 1035464 12.354918169839 19.025276699628 536 0 2 536 804
161	18214092 20968 446445 1021537 12.46611431424 18.826232140649 700 0 2 700 1050
162	18235060 26036 436936 1033742 12.318726302126 19.017545033723 868 0 2 868 1302
163	18261096 23616 440155 1042323 12.374241180838 19.062899149003 788 0 2 788 1182
164	18284712 13088 445415 1036363 12.462959896969 19.028517598065 436 0 2 436 654
165	18297800 23800 448158 1034265 12.472860123875 19.01999414719 796 0 2 796 1194
166	18321600 14844 433891 1018444 12.178436180834 18.810571350827 496 0 2 496 744
167	18336444 21812 434100 1037439 12.179183692809 19.032622316171 728 0 2 728 1092
168	18358256 20804 434850 1042045 12.182741207258 19.059924939854 696 0 2 696 1044
169	18379060 11132 447150 1039710 12.468422304047 19.043464034946 372 0 2 372 558
170	18390192 30876 437468 1038223 12.351675102489 19.036433800775 1032 0 2 1032 1548
171	18421068 15766 434169 1042009 12.179717812054 19.059628458165 508 17 104 34607 2494035
172	18436834 17680 434318 1040061 12.180227133845 19.04580786507 592 0 2 592 888
173	18454514 24464 434672 1042223 12.182038677402 19.062124818843 816 0 2 816 1224
174	18478978 94 537409 1032673 13.181824337466 19.009989608148 3 10 16 37 477
175	18479072 87 537409 1032673 13.181824337466 19.009989608148 2 0.002446508104 0.174281237422 0.176727745526 0.030379935119246
176	18479159 19620 439054 1041183 12.359670437069 19.051962289843 656 0 2 656 984
177	18498779 19256 433773 1030800 12.178086963563 18.967834464761 642 0 2 641 961
178	18518035 15064 436132 1037228 12.218748674213 19.03181783805 504 0 2 504 756
179	18533099 20964 435109 1037923 12.184111251022 19.03462643499 700 0 2 700 1050
180	18554063 19460 434636 1031488 12.181616844991 18.974212590756 648 0 2 648 972
181	18573523 23268 435344 1035875 12.185470443068 19.026892705297 776 0 2 776 1164
182	18596791 17732 436342 1042127 12.248671173434 19.061959059801 592 0 2 592 888
183	18614523 218 513123 1038703 13.038748374209 19.038748374209 7 10 16 91 1211
184	18614741 93 526654 803151 13.110275042392 16.015982001244 3 10 13 35 413
185	18614834 129 526654 803151 13.110275042392 16.015982001244 3 0.002659990375 0.096953031523 0.121699981685 0.0098947996629275
186	18614963 31 634071 634071 14.385697709589 14.385697709589 1 84 84 84 7056
187	18614994 186 521915 952989 13.084059653804 18.084059653804 6 10 15 75 955
188	18615180 62 604542 878463 14.086626376579 17.086644949186 2 11 14 25 317
189	18615242 86 604542 878463 14.086626376579 17.086644949186 2 0.002566722775 0.002585295382 0.005152018157 1.3271818015894e-005
190	18615328 180 528994 957345 13.13382953289 18.13382953289 6 10 15 75 955
191	18615508 20840 434493 1019095 12.180871991658 18.812541575743 696 0 2 696 1044
192	18636348 186 529594 957856 13.137526819482 18.137526819482 6 10 15 75 955
193	18636534 20848 434064 1039862 12.179122458188 19.044989096314 696 0 2 696 1044
194	18657382 186 529738 958050 13.138613280142 18.138613280142 6 10 15 75 955
195	18657568 31 543730 543730 13.271924607621 13.271924607621 1 10 10 10 100
196	18657599 43 543730 543730 13.271924607621 13.271924607621 1 0.138095074731 0.138095074731 0.138095074731 0.01907024966496
197	18657642 22028 438763 1035670 12.358200359689 19.026075232332 736 0 2 736 1104
198	18679670 186 530488 958639 13.142111092107 18.142111092107 6 10 15 75 955
199	18679856 26452 435210 1034151 12.184784868257 19.019347813401 884 0 2 884 1326
200	18706308 16588 437352 1041382 12.349243011263 19.05289579148 552 0 2 552 828
201	18722896 184 538409 958384 13.189753234784 18.14080372972 6 10 15 72 886
202	18723080 213 538409 958384 13.189753234784 18.14080372972 5 0.003276910238 0.415604816212 0.551306347126 0.17952000633388
203	18723293 62 727181 959093 15.227012821459 18.146011926846 2 12 15 27 369
204	18723355 86 727181 959093 15.227012821459 18.146011926846 2 0.007398646704 0.088399541317 0.095798188021 0.0078692188781066
206	18723441 186 535854 959335 13.166776350932 18.166776350932 6 10 15 75 955
207	18723627 92 435972 618481 12.201849172313 14.170509028543 3 9 11 30 302
208	18723719 129 435972 618481 12.201849172313 14.170509028543 3 0.003732677611 0.035072821381 0.065190653559 0.0019402120632957
211	18723848 216 436125 959967 12.218558674213 18.218558674213 7 9 15 84 1036
212	18724064 124 541783 882760 13.221112263374 17.221285047917 4 10 14 48 586
213	18724188 172 541783 882760 13.221112263374 17.221285047917 4 0.002553589161 0.028016156495 0.036296010881 0.00080785830506714
214	18724360 216 436335 960172 12.248101173434 18.248101173434 7 9 15 84 1036
215	18724576 155 542963 888117 13.250887917915 17.255921414233 5 10 14 63 805
216	18724731 172 542963 887733 13.250887917915 17.252349293819 4 0.002786744481 0.007578219911 0.017565297252 9.1957447124859e-005
217	18724903 216 436546 960401 12.315708867274 18.315708867274 7 9 15 84 1036
218	18725119 216 436553 960407 12.316224311944 18.316224311944 7 9 15 84 1036
219	18725335 124 660709 766870 14.584219453441 15.492179611991 4 84 84 336 28224
220	18725459 94 577787 1009844 13.910519502671 18.671206004899 3 84 84 252 21168
221	18725553 216 437342 966699 12.345498642651 18.345498642651 7 9 15 84 1036
222	18725769 62 546495 681060 13.346659791719 14.842785711799 2 48 84 132 9360
223	18725831 216 439738 969815 12.364461026154 18.364461026154 7 9 15 84 1036
226	18726047 216 440147 970238 12.373951180838 18.373951180838 7 9 15 84 1036
227	18726263 216 440351 974941 12.395885852398 18.395885852398 7 9 15 84 1036
228	18726479 154 436407 836991 12.249523078992 16.365862298753 5 48 84 312 21024
229	18726633 216 440734 977422 12.418508185772 18.418508185772 7 9 15 84 1036
230	18726849 125 449897 955801 12.494297704347 18.105134135589 4 68 104 308 24688
231	18726974 216 449899 985525 12.494654514128 18.494654514128 7 9 15 84 1036
232	18727190 202 450035 985834 12.4957732982 18.4957732982 7 9 15 84 1036
233	18727392 216 450424 986444 12.499130365672 18.499130365672 7 9 15 84 1036
234	18727608 216 450675 987059 12.501874595415 18.501874595415 7 9 15 84 1036
235	18727824 123 458971 906332 12.540081090148 17.498968394952 4 9 14 44 498
236	18727947 172 458971 906332 12.540081090148 17.498968394952 4 0.003195096752 0.044307791948 0.077031968145 0.0026360676893752
237	18728119 61 649425 847392 14.53654977679 16.508862995809 2 11 13 24 290
238	18728180 85 649425 847392 14.53654977679 16.508862995809 2 0.006988400394 0.034675181375 0.041663581769 0.001251205943456
239	18728265 210 469423 1012998 12.69910739176 18.69910739176 7 9 15 84 1036
240	18728475 278 556600 675153 13.708328782845 14.701732076952 9 10 11 91 921
241	18728753 86 556600 675153 13.708328782845 14.701732076952 2 0.002624685192 0.009221391085 0.011846076277 9.1923025899622e-005
242	18728839 217 469820 1013201 12.701548448997 18.701548448997 7 9 15 84 1036
243	18729056 217 477543 1016006 12.734658046393 18.734658046393 7 9 15 84 1036
244	18729273 217 492572 1021607 12.877221208997 18.877221208997 7 9 15 84 1036
245	18729490 217 492770 1021743 12.878559082747 18.878559082747 7 9 15 84 1036
246	18729707 186 570259 867139 13.882140612336 16.885136517333 6 10 13 68 776
247	18729893 172 570259 867139 13.882140612336 16.885136517333 4 0.003005583108 0.028939910195 0.044780204978 0.00093340456717948
248	18730065 156 493007 1030755 12.881264130058 18.967670464761 5 9 15 66 900
249	18730221 130 493007 1028493 12.881264130058 18.921494729158 3 0.002705047311 0.042935646411 0.049859122058 0.0018685821513111
250	18730351 217 497678 1029679 12.950964029413 18.950964029413 7 9 15 84 1036
251	18730568 217 508891 1032231 13.009907409203 18.984701091764 7 9 15 89 1169
252	18730785 213 508891 1031838 13.009907409203 18.980241092524 5 0.002464913835 0.05894337979 0.136561642507 0.0053898614854693
253	18730998 217 501702 1030855 12.967904078308 18.967904078308 7 9 15 84 1036
254	18731215 94 802183 1031120 16.000580584282 18.970509747932 3 12 15 41 565
255	18731309 129 802183 1031120 16.000580584282 18.970509747932 3 0.002605669624 0.032676505974 0.039410058758 0.0010915829762409
256	18731438 258 510755 1033032 13.019884847875 19.012599605439 6 0.002225447284 0.063271454091 0.101694114221 0.0045630692941399
257	18731696 124 513557 877794 13.041555345139 17.042815372563 4 10 14 49 613
258	18731820 128 513557 877611 13.041555345139 17.041455372491 3 0.002706998282 0.004108572502 0.009622541714 3.2087293504807e-005
259	18731948 60 877611 877794 17.041455372491 17.042815372563 2 6 6 12 72
260	18732008 30 538722 538722 13.191733859425 13.191733859425 1 8 8 8 64
261	18732038 89 538409 882075 13.189753234784 17.19810066767 3 4 5 13 57
262	18732127 31 485007 485007 12.815786355167 12.815786355167 1 68 68 68 4624
263	18732158 92 437186 833372 12.321262469739 16.319561243633 3 9 13 33 371
264	18732250 86 437186 833372 12.321262469739 16.319561243633 2 0.003336931689 0.005038157795 0.008375089484 3.6518147064372e-005
265	18732336 90 437186 833372 12.321262469739 16.319561243633 3 6 8 21 149
266	18732426 218 508654 1005756 13.00743999822 18.613238977444 7 48 84 516 39888
267	18732644 184 440584 903378 12.398753768675 17.409405888506 6 9 14 76 986
268	18732828 128 440584 902496 12.398753768675 17.40015519753 3 0.002706638328 0.004269345132 0.009843899737 3.3778142666612e-005
269	18732956 149 634693 903378 14.398592490726 17.409405888506 5 4 6 28 160
270	18733105 31 930627 930627 17.898572489484 17.898572489484 1 68 68 68 4624
271	18733136 32 620648 620648 14.204813275944 14.204813275944 1 104 104 104 10816
272	18733168 62 918594 998810 17.678552558482 18.558619769795 2 68 68 136 9248
273	18733230 312 541537 1010171 13.218882616399 18.68142827651 10 68 104 716 52432
274	18733542 93 457655 626504 12.533055987255 14.331930952793 3 84 84 252 21168
275	18733635 31 549687 549687 13.502462588286 13.502462588286 1 10 10 10 100
276	18733666 43 549687 549687 13.502462588286 13.502462588286 1 0.003332222614 0.003332222614 0.003332222614 1.1103707549253e-005
277	18733709 30 549687 549687 13.502462588286 13.502462588286 1 6 6 6 36
278	18733739 124 578177 930036 13.912193193948 17.878183005309 4 48 84 300 23472
279	18733863 93 513782 731129 13.042567767038 15.245503205679 3 68 68 204 13872
280	18733956 62 815291 901659 16.142056259608 17.394615791748 2 84 84 168 14112
281	18734018 94 672098 1016389 14.65909836018 18.757624077269 3 68 68 204 13872
282	18734112 31 522924 522924 13.091601096219 13.091601096219 1 68 68 68 4624
283	18734143 185 694956 977487 14.970870896141 18.419850131446 6 84 84 504 42336
284	18734328 123 482796 921997 12.780942181108 17.737186637083 4 9 14 47 567
285	18734451 171 482796 921997 12.780942181108 17.737186637083 4 0.002366766649 0.046284134715 0.056777735413 0.0021855568102712
286	18734622 60 675967 860905 14.737024813042 16.740256289752 2 6 7 13 85
288	18734682 31 535792 535792 13.166216597363 13.166216597363 1 68 68 68 4624
289	18734713 184 529234 957538 13.135425145272 18.135425145272 6 8 13 63 679
290	18734897 184 529239 957582 13.136006979272 18.136006979272 6 8 13 63 679
291	18735081 62 727181 959093 15.227012821459 18.146011926846 2 10 12 22 244
292	18735143 61 614611 957879 14.150476477355 18.138172297426 2 9 13 22 250
293	18735204 86 614611 957879 14.150476477355 18.138172297426 2 0.002747152154 0.015051332083 0.017798484237 0.00023408944242997
294	18735290 154 852381 935088 16.674858930393 17.95232514007 5 84 84 420 35280
295	18735444 92 436822 833698 12.318336208008 16.321644327149 3 9 13 35 419
296	18735536 86 436822 833477 12.318336208008 16.319584327155 2 0.002627340734 0.003875459881 0.006502800615 2.1922108621776e-005
297	18735622 90 436822 833698 12.318336208008 16.321644327149 3 6 9 24 198
300	18735712 124 547306 903574 13.376759226507 17.414833724099 4 10 14 48 586
301	18735836 172 547306 903574 13.376759226507 17.414833724099 4 0.002808045669 0.040882543261 0.056286278348 0.0017805250565446
302	18736008 60 547306 837367 13.376759226507 16.376937538221 2 3 4 7 25
304	18736068 31 635932 635932 14.421335231403 14.421335231403 1 11 11 11 121
305	18736099 43 635932 635932 14.421335231403 14.421335231403 1 0.002827045631 0.002827045631 0.002827045631 7.9921869997562e-006
306	18736142 30 635932 635932 14.421335231403 14.421335231403 1 6 6 6 36
308	18736172 30 906332 906332 17.498968394952 17.498968394952 1 7 7 7 49
309	18736202 215 461647 1001040 12.572759821545 18.572759821545 7 7 13 70 728
310	18736417 61 550327 777270 13.575348448394 15.577247479865 2 8 10 18 164
311	18736478 85 550327 777270 13.575348448394 15.577247479865 2 0.002588626849 0.00448765832 0.007076285169 2.6840066160429e-005
313	18736563 60 550327 777270 13.575348448394 15.577247479865 2 6 7 13 85
314	18736623 208 463282 1009515 12.66689896863 18.66689896863 7 7 13 70 728
315	18736831 90 555656 782539 13.699491847583 15.66970526586 3 8 10 27 245
316	18736921 127 555656 782539 13.699491847583 15.66970526586 3 0.00280629723 0.032592878953 0.053553315668 0.0013997438430289
318	18737048 30 555656 555656 13.699491847583 13.699491847583 1 2 2 2 4
319	18737078 155 474247 1014566 12.720268736383 18.713098548197 5 9 15 62 792
320	18737233 213 474247 1014566 12.720268736383 18.713098548197 5 0.002532482278 0.018720287386 0.037901703331 0.00050326651168674
321	18737446 60 675535 858473 14.704102190184 16.704080931275 2 6 7 13 85
323	18737506 90 570259 694207 13.882140612336 14.948814077917 3 2 2 6 12
324	18737596 215 493160 1025641 12.898007123731 18.898007123731 7 7 13 70 728
325	18737811 92 912493 922420 17.634745518693 17.750887383529 3 68 68 204 13872
327	18737903 405 547995 1035237 13.419569974603 19.024378847384 13 84 84 1092 91728
328	18738308 277 707449 1013083 15.08506168453 18.700629322458 9 84 84 756 63504
329	18738585 93 448670 694384 12.475162139047 14.952145454829 3 84 84 252 21168
330	18738678 60 541783 831721 13.221112263374 16.246574830708 2 7 8 15 113
331	18738738 31 628768 628768 14.350257591018 14.350257591018 1 11 11 11 121
332	18738769 43 628768 628768 14.350257591018 14.350257591018 1 0.004758948367 0.004758948367 0.004758948367 2.2647589559772e-005
333	18738812 30 628768 628768 14.350257591018 14.350257591018 1 8 8 8 64
334	18738842 90 902886 903378 17.404824998399 17.409405888506 3 2 4 9 29
335	18738932 241 529761 879767 13.138920346324 17.141658993378 8 8 12 74 694
336	18739173 129 529761 879767 13.138920346324 17.141658993378 3 0.002913367052 0.346837397143 0.355402778301 0.12033661302797
337	18739302 210 529761 879767 13.138920346324 17.141658993378 7 7 9 51 375
340	18739512 150 641533 642412 14.484053861628 14.491539316636 5 2 6 20 90
341	18739662 341 439809 905935 12.365695501282 17.496096163636 11 84 84 924 77616
342	18740003 154 493596 1026458 12.902078723217 18.901768679589 5 7 13 51 541
343	18740157 172 493596 1026458 12.902078723217 18.901768679589 4 0.003761555858 0.328706171397 0.340318928591 0.10809275972947
344	18740329 151 493596 1026458 12.902078723217 18.901768679589 5 4 7 28 162
345	18740480 61 802183 935590 16.000580584282 17.972031961468 2 9 10 19 181
346	18740541 217 546918 935959 13.365881882539 17.994884405137 7 48 84 552 44640
348	18740758 155 492634 974568 12.878242441798 18.394370983973 5 84 84 420 35280
352	18740913 90 542963 888117 13.250887917915 17.255921414233 3 5 6 17 97
353	18741003 30 833698 833698 16.321644327149 16.321644327149 1 2 2 2 4
354	18741033 93 491836 752693 12.850212223405 15.417781621383 3 68 104 240 20064
355	18741126 124 488563 867303 12.829331248004 16.886283149348 4 48 84 300 23472
359	18741250 215 460542 878704 12.55903115376 17.100081890276 7 68 68 476 32368
360	18741465 155 613214 917518 14.145555220224 17.664086320298 5 84 84 420 35280
361	18741620 60 701028 702563 15.031558590783 15.037910039755 2 4 4 8 32
362	18741680 60 614611 957879 14.150476477355 18.138172297426 2 4 7 11 65
363	18741740 30 888117 888117 17.255921414233 17.255921414233 1 2 2 2 4
364	18741770 61 588843 670461 13.968133559919 14.64534156808 2 68 68 136 9248
365	18741831 31 799524 799524 15.964015269032 15.964015269032 1 68 68 68 4624
366	18741862 217 483782 862422 12.79830528807 16.765057098379 7 68 104 512 38560
367	18742079 93 548935 850531 13.497040677856 16.532856434439 3 10 13 35 413
368	18742172 129 548935 850531 13.497040677856 16.532856434439 3 0.002386163728 0.038201920311 0.048812942047 0.0015327287820366
369	18742301 60 548935 769138 13.497040677856 15.502879372136 2 7 8 15 113
370	18742361 275 439978 960232 12.36704019238 18.24914253332 9 84 84 756 63504
371	18742636 402 497217 986732 12.94940725563 18.500891137284 13 48 84 1056 86976
372	18743038 152 493007 1030755 12.881264130058 18.967670464761 5 5 9 39 317
373	18743190 62 1032033 1032231 18.982041092217 18.984701091764 2 6 7 13 85
374	18743252 121 800825 1032231 15.9738873111 18.984701091764 4 1 2 7 13
375	18743373 93 440208 891860 12.375092793912 17.349971499957 3 84 84 252 21168
376	18743466 31 745175 745175 15.365943453131 15.365943453131 1 84 84 84 7056
377	18743497 151 605068 642132 14.099112404042 14.489425105 5 68 68 340 23120
379	18743648 93 483256 707887 12.789866955667 15.087889997847 3 68 68 204 13872
380	18743741 62 481032 953507 12.757745221937 18.087852249246 2 68 68 136 9248
381	18743803 95 826648 1030181 16.203868835027 18.960286046041 3 68 104 240 20064
382	18743898 62 461697 706066 12.573941207828 15.058702495175 2 84 84 168 14112
383	18743960 186 450062 995701 12.496393662722 18.541001122563 6 84 84 504 42336
384	18744146 124 520901 917020 13.075636521177 17.660921810411 4 68 68 272 18496
385	18744270 346 559639 882435 13.746333142278 17.214369650601 11 68 104 928 81824
387	18744616 30 701970 701970 15.035408970656 15.035408970656 1 3 3 3 9
389	18744646 61 537409 1032673 13.181824337466 19.009989608148 2 1 5 6 26
390	18744707 188 525562 850841 13.105486232643 16.565720434439 6 68 104 480 40128
394	18744895 59 649425 847392 14.53654977679 16.508862995809 2 3 4 7 25
395	18744954 239 556600 562302 13.708328782845 13.796695198519 8 2 2 16 32
396	18745193 159 463117 1007581 12.614527842836 18.640503997574 5 68 104 448 41696
397	18745352 125 436187 1016073 12.219599479161 18.735979080405 4 84 84 336 28224
398	18745477 125 543290 912393 13.268037873446 17.631232662245 4 68 104 308 24688
399	18745602 209 557181 562302 13.711682211439 13.796695198519 7 1 7 28 140
400	18745811 92 561316 775861 13.78374968928 15.563818636422 3 68 68 204 13872
401	18745903 123 561721 603614 13.787938825808 14.072632330815 4 68 68 272 18496
402	18746026 124 568148 930207 13.863916960098 17.879959629756 4 84 84 336 28224
403	18746150 62 593355 593360 14.007543100044 14.007543100044 2 84 84 168 14112
404	18746212 62 593355 593360 14.007543100044 14.007543100044 2 84 84 168 14112
405	18746274 60 604542 878463 14.086626376579 17.086644949186 2 1 3 4 10
406	18746334 62 623578 623583 14.316224311944 14.316224311944 2 84 84 168 14112
407	18746396 62 623578 623583 14.316224311944 14.316224311944 2 84 84 168 14112
408	18746458 60 692539 694207 14.919129599949 14.948814077917 2 1 2 3 5
409	18746518 30 702563 702563 15.037910039755 15.037910039755 1 1 1 1 1
410	18746548 62 751697 993519 15.404671427322 18.529935417528 2 84 84 168 14112
411	18746610 31 758362 758362 15.449638299937 15.449638299937 1 84 84 84 7056
412	18746641 62 776766 904360 15.572436013888 17.437330544113 2 68 68 136 9248
413	18746703 93 782975 960493 15.702730215637 18.317626130254 3 84 84 252 21168
414	18746796 93 800557 1006111 15.971339843195 18.62148905662 3 68 68 204 13872
415	18746889 30 877794 877794 17.042815372563 17.042815372563 1 1 1 1 1
416	18746919 30 887216 887216 17.243912674611 17.243912674611 1 1 1 1 1
417	18746949 63 954155 1018772 18.091877029801 18.811553299401 2 84 84 168 14112
418	18747012 61 1028686 1030755 18.92443472921 18.967670464761 2 1 2 3 5

