version 2
run General-3-20201229-11:54:24-10692
attr configname General
attr datetime 20201229-11:54:24
attr experiment General
attr inifile multi_test_real.ini
attr iterationvars "$pathlosstype=\"LogNormalShadowing\""
attr iterationvarsf pathlosstype=LogNormalShadowing-
attr measurement "$pathlosstype=\"LogNormalShadowing\""
attr network myuav.UAVNetwork_Multi
attr processid 10692
attr repetition 0
attr replication #0
attr resultdir results
attr runnumber 3
attr seedset 3
itervar pathlosstype "\"LogNormalShadowing\""
param *.configurator.addStaticRoutes false
param **.arp.typename "\"GlobalArp\""
param **.basicHosts[*].forwarding false
param **.basicHosts[*].multicastForwarding false
param **.hostRouters[*].forwarding true
param **.hostRouters[*].multicastForwarding true
param *.numHosts 30
param *.numRouters 5
param *.configurator.config "xmldoc(\"multi_test.xml\")"
param *.configurator.dumpAddresses true
param *.configurator.dumpTopology true
param *.configurator.dumpLinks true
param *.configurator.dumpRoutes true
param *.configurator.dumpConfig "\"multi_test_dump.xml\""
param *.visualizer.osgVisualizer.typename "\"IntegratedOsgVisualizer\""
param *.visualizer.osgVisualizer.sceneVisualizer.clearColor "\"skyblue\""
param *.visualizer.osgVisualizer.sceneVisualizer.sceneImage "\"showcases/desert\""
param *.visualizer.osgVisualizer.sceneVisualizer.sceneImageSize 2000m
param *.visualizer.osgVisualizer.sceneVisualizer.axisLength 500m
param *.visualizer.osgVisualizer.sceneVisualizer.sceneMinX 0m
param *.visualizer.osgVisualizer.sceneVisualizer.sceneMinY 0m
param *.visualizer.osgVisualizer.sceneVisualizer.sceneMinZ 0m
param *.visualizer.osgVisualizer.sceneVisualizer.sceneMaxX 2000m
param *.visualizer.osgVisualizer.sceneVisualizer.sceneMaxY 2000m
param *.visualizer.osgVisualizer.sceneVisualizer.sceneMaxZ 1000m
param *.visualizer.*.networkRouteVisualizer.displayRoutes true
param *.visualizer.*.networkRouteVisualizer.packetFilter "\"ping*\""
param *.visualizer.*.networkRouteVisualizer.lineWidth 10
param *.visualizer.*.networkRouteVisualizer.lineShift 0
param *.visualizer.*.mobilityVisualizer.displayMovementTrails true
param *.visualizer.*.mobilityVisualizer.animationSpeed 1
param *.hostRouters[*].wlan[0].typename "\"WirelessInterface\""
param *.basicHosts[*].wlan[0].typename "\"WirelessInterface\""
param *.hostRouters[*].wlan[0].mac.typename "\"CsmaCaMac\""
param *.hostRouters[*].wlan[0].mac.ackTimeout 300us
param *.basicHosts[*].wlan[0].mac.typename "\"CsmaCaMac\""
param *.basicHosts[*].wlan[0].mac.ackTimeout 300us
param **.wlan[*].queue.typename "\"DropTailQueue\""
param *.hostRouters[*].wlan[0].mac.maxQueueSize 20000
param *.basicHosts[*].wlan[0].mac.maxQueueSize 10000
param *.radioMedium.typename "\"ApskScalarRadioMedium\""
param *.radioMedium.backgroundNoise.power -90dBm
param *.radioMedium.mediumLimitCache.carrierFrequency 2GHz
param *.hostRouters[*].wlan[0].radio.typename "\"ApskScalarRadio\""
param *.hostRouters[*].wlan[0].radio.carrierFrequency 2GHz
param *.basicHosts[*].wlan[0].radio.typename "\"ApskScalarRadio\""
param *.basicHosts[*].wlan[0].radio.carrierFrequency 2GHz
param **.ignorePartialInterference true
param *.hostRouters[*].wlan[0].radio.bandwidth 10MHz
param *.hostRouters[*].wlan[0].radio.transmitter.preambleDuration 10us
param *.hostRouters[*].wlan[0].radio.transmitter.headerLength 8b
param *.basicHosts[*].wlan[0].radio.bandwidth 10MHz
param *.basicHosts[*].wlan[0].radio.transmitter.preambleDuration 10us
param *.basicHosts[*].wlan[0].radio.transmitter.headerLength 8b
param *.hostRouters[*].wlan[0].radio.receiver.sensitivity -85dBm
param *.hostRouters[*].wlan[0].radio.receiver.energyDetection -85dBm
param *.hostRouters[*].wlan[0].radio.receiver.snirThreshold 4dB
param *.basicHosts[*].wlan[0].radio.receiver.sensitivity -85dBm
param *.basicHosts[*].wlan[0].radio.receiver.energyDetection -85dBm
param *.basicHosts[*].wlan[0].radio.receiver.snirThreshold 4dB
param **.hostRouters[*].**.bitrate 1Mbps
param **.basicHosts[*].**.bitrate 1Mbps
param **.hostRouters[*].wlan[*].radio.transmitter.power 20mW
param **.basicHosts[*].wlan[*].radio.transmitter.power 10mW
param *.radioMedium.pathLoss.typename "\"LogNormalShadowing\""
param *.physicalEnvironment.coordinateSystemModule "\"coordinateSystem\""
param *.*.mobility.coordinateSystemModule "\"coordinateSystem\""
param *.physicalEnvironment.config "xmldoc(\"obstacles.xml\")"
param *.radioMedium.obstacleLoss.typename "\"DielectricObstacleLoss\""
param **.hostRouters[*].app[*].typename "\"PingApp\""
param **.basicHosts[*].app[*].typename "\"PingApp\""
param *.hostRouters[*].numApps 1
param *.basicHosts[*].numApps 1
param **.basicHosts[*].app[*].count 1
param **.basicHosts[*].app[*].continuous true
param **.hostRouters[*].app[*].count 1
param **.hostRouters[*].app[*].continuous true
param **.hostRouters[0].app[*].destAddr "\"hostRouters[1] hostRouters[2] hostRouters[3] hostRouters[4]\""
param **.hostRouters[1].app[*].destAddr "\"hostRouters[0] hostRouters[2] hostRouters[3] hostRouters[4]\""
param **.hostRouters[2].app[*].destAddr "\"hostRouters[0] hostRouters[1] hostRouters[3] hostRouters[4]\""
param **.hostRouters[3].app[*].destAddr "\"hostRouters[0] hostRouters[1] hostRouters[2] hostRouters[4]\""
param **.hostRouters[4].app[*].destAddr "\"hostRouters[0] hostRouters[1] hostRouters[2] hostRouters[3]\""
param **.hostRouters[*].app[*].startTime uniform(5s,6s)
param **.hostRouters[*].app[*].printPing true
param **.basicHosts[*].app[*].destAddr "\"*\""
param **.basicHosts[*].app[*].startTime uniform(3s,4s)
param **.basicHosts[*].app[*].hopLimit 1
param **.basicHosts[*].app[*].printPing true
param **.hostRouters[*].mobility.typename "\"MassMobility\""
param **.hostRouters[*].mobility.initFromDisplayString false
param **.basicHosts[*].mobility.typename "\"MassMobility\""
param **.basicHosts[*].mobility.initFromDisplayString false
param **.hostRouters[*].osgModel "\"3d/drone.ive.80.scale.0,0,90.rot\""
param **.basicHosts[*].osgModel "\"3d/drone.ive.10.scale.0,0,90.rot\""
param **.hostRouters[*].mobility.initialMovementHeading "uniform(0deg, 360deg)"
param **.hostRouters[*].mobility.initialMovementElevation "uniform(-90deg, 90deg)"
param **.hostRouters[*].mobility.rotationAxisAngle uniform(-10deg,10deg)
param **.hostRouters[*].mobility.faceForward false
param **.basicHosts[*].mobility.initialMovementHeading "uniform(0deg, 360deg)"
param **.basicHosts[*].mobility.initialMovementElevation "uniform(-90deg, 90deg)"
param **.basicHosts[*].mobility.rotationAxisAngle uniform(-10deg,10deg)
param **.basicHosts[*].mobility.faceForward false
param **.hostRouters[*].mobility.speed truncnormal(50mps,8mps)
param **.hostRouters[*].mobility.changeInterval "truncnormal(2s, 1s)"
param **.hostRouters[*].mobility.angleDelta "normal(-20deg, 20deg)"
param **.basicHosts[*].mobility.speed "truncnormal(20mps, 4mps)"
param **.basicHosts[*].mobility.changeInterval "truncnormal(3s, 1s)"
param **.basicHosts[*].mobility.angleDelta "normal(-10deg, 10deg)"
param **.basicHosts[*].mobility.initialZ 200m
param **.basicHosts[*].mobility.constraintAreaMinZ 100m
param **.basicHosts[*].mobility.constraintAreaMaxZ 300m
param **.hostRouters[0].mobility.initialX 700m
param **.hostRouters[0].mobility.initialY 1000m
param **.hostRouters[1].mobility.initialX 1500m
param **.hostRouters[1].mobility.initialY 500m
param **.hostRouters[2].mobility.initialX 1500m
param **.hostRouters[2].mobility.initialY 1200m
param **.hostRouters[3].mobility.initialX 300m
param **.hostRouters[3].mobility.initialY 600m
param **.hostRouters[4].mobility.initialX 1000m
param **.hostRouters[4].mobility.initialY 1000m
param **.basicHosts[*].mobility.constraintAreaMinX 200m
param **.basicHosts[*].mobility.constraintAreaMaxX 1300m
param **.basicHosts[*].mobility.constraintAreaMinY 200m
param **.basicHosts[*].mobility.constraintAreaMaxY 1300m
param **.hostRouters[0].mobility.getOthersPosition true
param **.hostRouters[0].mobility.basicNodeNum 30
param **.hostRouters[0].mobility.routerNodeNum 5
param **.basicHosts[*].app[*].allowPingCluster true
param **.basicHosts[*].app[*].choosePingClusterPercent 99

scalar UAVNetwork_Multi.radioMedium.propagation "Arrival computation count" 345202
scalar UAVNetwork_Multi.radioMedium.obstacleLoss "Obstacle loss intersection computation count" 1035606
scalar UAVNetwork_Multi.radioMedium.obstacleLoss "Obstacle loss intersection count" 73371
scalar UAVNetwork_Multi.radioMedium "transmission count" 10153
scalar UAVNetwork_Multi.radioMedium "signal send count" 345202
scalar UAVNetwork_Multi.radioMedium "reception computation count" 345202
scalar UAVNetwork_Multi.radioMedium "interference computation count" 958366
scalar UAVNetwork_Multi.radioMedium "reception decision computation count" 183044
scalar UAVNetwork_Multi.radioMedium "listening decision computation count" 433564
scalar UAVNetwork_Multi.radioMedium "reception cache hit" 83.923941871322
attr unit %
scalar UAVNetwork_Multi.radioMedium "interference cache hit" 66.666666666667
attr unit %
scalar UAVNetwork_Multi.radioMedium "noise cache hit" 0
attr unit %
scalar UAVNetwork_Multi.radioMedium "snir cache hit" 50
attr unit %
scalar UAVNetwork_Multi.radioMedium "reception decision cache hit" 50
attr unit %
scalar UAVNetwork_Multi.radioMedium "reception result cache hit" 0
attr unit %
scalar UAVNetwork_Multi.basicHosts[0].lo[0].lo rcvdPkFromHl:count 2
attr interpolationmode none
attr source packetReceivedFromUpper
attr title "packets received from higher layer, count"
scalar UAVNetwork_Multi.basicHosts[0].lo[0].lo rcvdPkFromHl:sum(packetBytes) 168
attr interpolationmode none
attr source packetReceivedFromUpper
attr title "packets received from higher layer, sum(packetBytes)"
scalar UAVNetwork_Multi.basicHosts[0].lo[0].lo passedUpPk:count 2
attr interpolationmode none
attr source packetSentToUpper
attr title "packets passed to higher layer, count"
scalar UAVNetwork_Multi.basicHosts[0].lo[0].lo passedUpPk:sum(packetBytes) 168
attr interpolationmode none
attr source packetSentToUpper
attr title "packets passed to higher layer, sum(packetBytes)"
scalar UAVNetwork_Multi.basicHosts[0].wlan[0].mac numRetry 53
scalar UAVNetwork_Multi.basicHosts[0].wlan[0].mac numSentWithoutRetry 35
scalar UAVNetwork_Multi.basicHosts[0].wlan[0].mac numGivenUp 3
scalar UAVNetwork_Multi.basicHosts[0].wlan[0].mac numCollision 732
scalar UAVNetwork_Multi.basicHosts[0].wlan[0].mac numSent 52
scalar UAVNetwork_Multi.basicHosts[0].wlan[0].mac numReceived 56
scalar UAVNetwork_Multi.basicHosts[0].wlan[0].mac numSentBroadcast 75
scalar UAVNetwork_Multi.basicHosts[0].wlan[0].mac numReceivedBroadcast 1064
scalar UAVNetwork_Multi.basicHosts[0].wlan[0].mac packetDropIncorrectlyReceived:count 732
attr interpolationmode none
attr source packetDropReasonIsIncorrectlyReceived(packetDropped)
attr title "packet drop: incorrectly received, count"
scalar UAVNetwork_Multi.basicHosts[0].wlan[0].mac packetDropIncorrectlyReceived:sum(packetBytes) 51398
attr interpolationmode none
attr source packetDropReasonIsIncorrectlyReceived(packetDropped)
attr title "packet drop: incorrectly received, sum(packetBytes)"
scalar UAVNetwork_Multi.basicHosts[0].wlan[0].mac packetDropNotAddressedToUs:count 2149
attr interpolationmode none
attr source packetDropReasonIsNotAddressedToUs(packetDropped)
attr title "packet drop: not addressed to us, count"
scalar UAVNetwork_Multi.basicHosts[0].wlan[0].mac packetDropNotAddressedToUs:sum(packetBytes) 172168
attr interpolationmode none
attr source packetDropReasonIsNotAddressedToUs(packetDropped)
attr title "packet drop: not addressed to us, sum(packetBytes)"
scalar UAVNetwork_Multi.basicHosts[0].wlan[0].mac packetDropQueueOverflow:count 0
attr interpolationmode none
attr source packetDropReasonIsQueueOverflow(packetDropped)
attr title "packet drop: queue overflow, count"
scalar UAVNetwork_Multi.basicHosts[0].wlan[0].mac packetDropQueueOverflow:sum(packetBytes) 0
attr interpolationmode none
attr source packetDropReasonIsQueueOverflow(packetDropped)
attr title "packet drop: queue overflow, sum(packetBytes)"
scalar UAVNetwork_Multi.basicHosts[0].wlan[0].mac packetDropRetryLimitReached:count 3
attr interpolationmode none
attr source packetDropReasonIsRetryLimitReached(packetDropped)
attr title "packet drop: retry limit reached, count"
scalar UAVNetwork_Multi.basicHosts[0].wlan[0].mac packetDropRetryLimitReached:sum(packetBytes) 204
attr interpolationmode none
attr source packetDropReasonIsRetryLimitReached(packetDropped)
attr title "packet drop: retry limit reached, sum(packetBytes)"
scalar UAVNetwork_Multi.basicHosts[0].wlan[0].mac linkBroken:count 3
attr interpolationmode none
attr source linkBroken
attr title "link break, count"
statistic UAVNetwork_Multi.basicHosts[0].wlan[0].radio minSnir:histogram
field count 5203
field mean 10.279699765644
field stddev 15.610556228955
field min 0.027884720692105
field max 240.49492215953
field sum 53485.277880646
field sqrsum 1817485.1994689
attr source minimumSnir(packetSentToUpper)
attr title "Min SNIR, histogram"
bin	-inf	0
bin	0	2785
bin	6	1348
bin	12	425
bin	18	203
bin	24	107
bin	30	90
bin	36	53
bin	42	31
bin	48	28
bin	54	17
bin	60	17
bin	66	21
bin	72	7
bin	78	15
bin	84	7
bin	90	7
bin	96	8
bin	102	9
bin	108	3
bin	114	6
bin	120	5
bin	126	1
bin	132	2
bin	138	3
bin	144	0
bin	150	2
bin	156	1
bin	162	0
bin	168	1
bin	174	0
bin	180	0
bin	186	0
bin	192	0
bin	198	0
bin	204	0
bin	210	0
bin	216	0
bin	222	0
bin	228	0
bin	234	0
bin	240	1
bin	246	0
statistic UAVNetwork_Multi.basicHosts[0].wlan[0].radio packetErrorRate:histogram
field count 5203
field mean 0.023657912613601
field stddev 0.14341681160981
field min 0
field max 1
field sum 123.09211932857
field sqrsum 109.90882499829
attr source packetErrorRate(packetSentToUpper)
attr title "Packet error rate, histogram"
bin	-inf	0
bin	0	5003
bin	0.02	25
bin	0.04	13
bin	0.06	5
bin	0.08	5
bin	0.1	2
bin	0.12	7
bin	0.14	2
bin	0.16	3
bin	0.18	1
bin	0.2	1
bin	0.22	3
bin	0.24	0
bin	0.26	3
bin	0.28	2
bin	0.3	1
bin	0.32	0
bin	0.34	0
bin	0.36	0
bin	0.38	1
bin	0.4	1
bin	0.42	2
bin	0.44	0
bin	0.46	1
bin	0.48	1
bin	0.5	2
bin	0.52	0
bin	0.54	2
bin	0.56	1
bin	0.58	1
bin	0.6	1
bin	0.62	0
bin	0.64	2
bin	0.66	0
bin	0.68	2
bin	0.7	0
bin	0.72	2
bin	0.74	0
bin	0.76	0
bin	0.78	2
bin	0.8	2
bin	0.82	1
bin	0.84	6
bin	0.86	0
bin	0.88	4
bin	0.9	3
bin	0.92	3
bin	0.94	0
bin	0.96	2
bin	0.98	53
bin	1	32
bin	1.02	0
bin	1.04	0
bin	1.06	0
bin	1.08	0
bin	1.1	0
bin	1.12	0
bin	1.14	0
bin	1.16	0
bin	1.18	0
bin	1.2	0
bin	1.22	0
bin	1.24	0
bin	1.26	0
statistic UAVNetwork_Multi.basicHosts[0].wlan[0].radio bitErrorRate:histogram
field count 5203
field mean 0.0011033204806289
field stddev 0.011160377750854
field min 0
field max 0.22759534633843
field sum 5.7405764607123
field sqrsum 0.65426376766
attr source bitErrorRate(packetSentToUpper)
attr title "Bit error rate, histogram"
bin	-inf	0
bin	0	5111
bin	0.004	8
bin	0.008	9
bin	0.012	6
bin	0.016	7
bin	0.02	4
bin	0.024	4
bin	0.028	5
bin	0.032	4
bin	0.036	0
bin	0.04	2
bin	0.044	1
bin	0.048	1
bin	0.052	1
bin	0.056	6
bin	0.06	2
bin	0.064	3
bin	0.068	1
bin	0.072	2
bin	0.076	1
bin	0.08	1
bin	0.084	1
bin	0.088	0
bin	0.092	1
bin	0.096	0
bin	0.1	0
bin	0.104	2
bin	0.108	0
bin	0.112	2
bin	0.116	0
bin	0.12	0
bin	0.124	2
bin	0.128	0
bin	0.132	1
bin	0.136	1
bin	0.14	2
bin	0.144	1
bin	0.148	0
bin	0.152	2
bin	0.156	1
bin	0.16	1
bin	0.164	1
bin	0.168	0
bin	0.172	1
bin	0.176	1
bin	0.18	1
bin	0.184	0
bin	0.188	0
bin	0.192	0
bin	0.196	0
bin	0.2	0
bin	0.204	0
bin	0.208	1
bin	0.212	1
bin	0.216	0
bin	0.22	0
bin	0.224	1
bin	0.228	0
statistic UAVNetwork_Multi.basicHosts[0].wlan[0].radio symbolErrorRate:histogram
field count 5203
field mean 0.0011033204806289
field stddev 0.011160377750854
field min 0
field max 0.22759534633843
field sum 5.7405764607123
field sqrsum 0.65426376766
attr source symbolErrorRate(packetSentToUpper)
attr title "Symbol error rate, histogram"
bin	-inf	0
bin	0	5111
bin	0.004	8
bin	0.008	9
bin	0.012	6
bin	0.016	7
bin	0.02	4
bin	0.024	4
bin	0.028	5
bin	0.032	4
bin	0.036	0
bin	0.04	2
bin	0.044	1
bin	0.048	1
bin	0.052	1
bin	0.056	6
bin	0.06	2
bin	0.064	3
bin	0.068	1
bin	0.072	2
bin	0.076	1
bin	0.08	1
bin	0.084	1
bin	0.088	0
bin	0.092	1
bin	0.096	0
bin	0.1	0
bin	0.104	2
bin	0.108	0
bin	0.112	2
bin	0.116	0
bin	0.12	0
bin	0.124	2
bin	0.128	0
bin	0.132	1
bin	0.136	1
bin	0.14	2
bin	0.144	1
bin	0.148	0
bin	0.152	2
bin	0.156	1
bin	0.16	1
bin	0.164	1
bin	0.168	0
bin	0.172	1
bin	0.176	1
bin	0.18	1
bin	0.184	0
bin	0.188	0
bin	0.192	0
bin	0.196	0
bin	0.2	0
bin	0.204	0
bin	0.208	1
bin	0.212	1
bin	0.216	0
bin	0.22	0
bin	0.224	1
bin	0.228	0
scalar UAVNetwork_Multi.basicHosts[0].wlan[0].radio transmissionState:count 956
attr interpolationmode sample-hold
attr source transmissionStateChanged
attr title "Radio transmission state, count"
scalar UAVNetwork_Multi.basicHosts[0].wlan[0].radio receptionState:count 13023
attr interpolationmode sample-hold
attr source receptionStateChanged
attr title "Radio reception state, count"
scalar UAVNetwork_Multi.basicHosts[0].wlan[0].radio radioMode:count 481
attr interpolationmode sample-hold
attr source radioModeChanged
attr title "Radio mode, count"
scalar UAVNetwork_Multi.basicHosts[0].ipv4.ip packetDropAddressResolutionFailed:count 0
attr interpolationmode none
attr source packetDropReasonIsAddressResolutionFailed(packetDropped)
attr title "packet drop: address resolution failed, count"
scalar UAVNetwork_Multi.basicHosts[0].ipv4.ip packetDropAddressResolutionFailed:sum(packetBytes) 0
attr interpolationmode none
attr source packetDropReasonIsAddressResolutionFailed(packetDropped)
attr title "packet drop: address resolution failed, sum(packetBytes)"
scalar UAVNetwork_Multi.basicHosts[0].ipv4.ip packetDropHopLimitReached:count 0
attr interpolationmode none
attr source packetDropReasonIsHopLimitReached(packetDropped)
attr title "packet drop: hop limit reached, count"
scalar UAVNetwork_Multi.basicHosts[0].ipv4.ip packetDropHopLimitReached:sum(packetBytes) 0
attr interpolationmode none
attr source packetDropReasonIsHopLimitReached(packetDropped)
attr title "packet drop: hop limit reached, sum(packetBytes)"
scalar UAVNetwork_Multi.basicHosts[0].ipv4.ip packetDropForwardingDisabled:count 14
attr interpolationmode none
attr source packetDropReasonIsForwardingDisabled(packetDropped)
attr title "packet drop: forwarding disabled, count"
scalar UAVNetwork_Multi.basicHosts[0].ipv4.ip packetDropForwardingDisabled:sum(packetBytes) 1176
attr interpolationmode none
attr source packetDropReasonIsForwardingDisabled(packetDropped)
attr title "packet drop: forwarding disabled, sum(packetBytes)"
scalar UAVNetwork_Multi.basicHosts[0].ipv4.ip packetDropNoInterfaceFound:count 0
attr interpolationmode none
attr source packetDropReasonIsNoInterfaceFound(packetDropped)
attr title "packet drop: no interface found, count"
scalar UAVNetwork_Multi.basicHosts[0].ipv4.ip packetDropNoInterfaceFound:sum(packetBytes) 0
attr interpolationmode none
attr source packetDropReasonIsNoInterfaceFound(packetDropped)
attr title "packet drop: no interface found, sum(packetBytes)"
scalar UAVNetwork_Multi.basicHosts[0].ipv4.ip packetDropNoRouteFound:count 0
attr interpolationmode none
attr source packetDropReasonIsNoRouteFound(packetDropped)
attr title "packet drop: no route found, count"
scalar UAVNetwork_Multi.basicHosts[0].ipv4.ip packetDropNoRouteFound:sum(packetBytes) 0
attr interpolationmode none
attr source packetDropReasonIsNoRouteFound(packetDropped)
attr title "packet drop: no route found, sum(packetBytes)"
scalar UAVNetwork_Multi.basicHosts[0].ipv4.ip packetDropUndefined:count 0
attr interpolationmode none
attr source packetDropReasonIsUndefined(packetDropped)
attr title "packet drop: undefined, count"
scalar UAVNetwork_Multi.basicHosts[0].ipv4.ip packetDropUndefined:sum(packetBytes) 0
attr interpolationmode none
attr source packetDropReasonIsUndefined(packetDropped)
attr title "packet drop: undefined, sum(packetBytes)"
scalar UAVNetwork_Multi.basicHosts[0].udp packetReceived:count 0
attr interpolationmode none
attr source packetReceived
attr title "packets received, count"
scalar UAVNetwork_Multi.basicHosts[0].udp packetReceived:sum(packetBytes) 0
attr interpolationmode none
attr source packetReceived
attr title "packets received, sum(packetBytes)"
scalar UAVNetwork_Multi.basicHosts[0].udp packetSent:count 0
attr interpolationmode none
attr source packetSent
attr title "packets sent, count"
scalar UAVNetwork_Multi.basicHosts[0].udp packetSent:sum(packetBytes) 0
attr interpolationmode none
attr source packetSent
attr title "packets sent, sum(packetBytes)"
scalar UAVNetwork_Multi.basicHosts[0].udp passedUpPk:count 0
attr interpolationmode none
attr source packetSentToUpper
attr title "packets passed up, count"
scalar UAVNetwork_Multi.basicHosts[0].udp droppedPkWrongPort:count 0
attr interpolationmode none
attr source packetDropReasonIsNoPortFound(packetDropped)
attr title "packets dropped (wrong port), count"
scalar UAVNetwork_Multi.basicHosts[0].udp droppedPkBadChecksum:count 0
attr interpolationmode none
attr source packetDropReasonIsIncorrectlyReceived(packetDropped)
attr title "packets dropped (checksum error), count"
scalar UAVNetwork_Multi.basicHosts[0].app[0] "Pings sent" 17
scalar UAVNetwork_Multi.basicHosts[0].app[0] "ping loss rate (%)" 23.529411764706
scalar UAVNetwork_Multi.basicHosts[0].app[0] "ping out-of-order rate (%)" 5.8823529411765
scalar UAVNetwork_Multi.basicHosts[0].app[0] pingRxSeq:count 14
attr interpolationmode none
attr title "ping rx seq, count"
scalar UAVNetwork_Multi.basicHosts[0].app[0] pingTxSeq:count 17
attr interpolationmode none
attr title "ping tx seq, count"
scalar UAVNetwork_Multi.basicHosts[0].app[0] numOutOfOrderArrivals:last 1
attr interpolationmode none
attr title "ping out-of-order arrivals, last"
scalar UAVNetwork_Multi.basicHosts[0].app[0] numLost:last 4
attr interpolationmode none
attr title "pings lost, last"
statistic UAVNetwork_Multi.basicHosts[0].app[0] rtt:histogram
field count 12
field mean 0.010567396879917
field stddev 0.017452519599485
field min 0.002225447284
field max 0.063271454091
field sum 0.126808762559
field sqrsum 0.0046905333658867
attr interpolationmode none
attr title "ping round-trip time, histogram"
attr unit s
bin	-inf	0
bin	0	0
bin	0.001	0
bin	0.002	5
bin	0.003	2
bin	0.004	0
bin	0.005	0
bin	0.006	1
bin	0.007	1
bin	0.008	0
bin	0.009	1
bin	0.01	0
bin	0.011	0
bin	0.012	0
bin	0.013	0
bin	0.014	0
bin	0.015	0
bin	0.016	0
bin	0.017	0
bin	0.018	0
bin	0.019	0
bin	0.02	0
bin	0.021	1
bin	0.022	0
bin	0.023	0
bin	0.024	0
bin	0.025	0
bin	0.026	0
bin	0.027	0
bin	0.028	0
bin	0.029	0
bin	0.03	0
bin	0.031	0
bin	0.032	0
bin	0.033	0
bin	0.034	0
bin	0.035	0
bin	0.036	0
bin	0.037	0
bin	0.038	0
bin	0.039	0
bin	0.04	0
bin	0.041	0
bin	0.042	0
bin	0.043	0
bin	0.044	0
bin	0.045	0
bin	0.046	0
bin	0.047	0
bin	0.048	0
bin	0.049	0
bin	0.05	0
bin	0.051	0
bin	0.052	0
bin	0.053	0
bin	0.054	0
bin	0.055	0
bin	0.056	0
bin	0.057	0
bin	0.058	0
bin	0.059	0
bin	0.06	0
bin	0.061	0
bin	0.062	0
bin	0.063	1
bin	0.064	0
bin	0.065	0
bin	0.066	0
bin	0.067	0
bin	0.068	0
bin	0.069	0
bin	0.07	0
bin	0.071	0
bin	0.072	0
bin	0.073	0
bin	0.074	0
bin	0.075	0
bin	0.076	0
bin	0.077	0
bin	0.078	0
bin	0.079	0
scalar UAVNetwork_Multi.basicHosts[1].lo[0].lo rcvdPkFromHl:count 2
attr interpolationmode none
attr source packetReceivedFromUpper
attr title "packets received from higher layer, count"
scalar UAVNetwork_Multi.basicHosts[1].lo[0].lo rcvdPkFromHl:sum(packetBytes) 168
attr interpolationmode none
attr source packetReceivedFromUpper
attr title "packets received from higher layer, sum(packetBytes)"
scalar UAVNetwork_Multi.basicHosts[1].lo[0].lo passedUpPk:count 2
attr interpolationmode none
attr source packetSentToUpper
attr title "packets passed to higher layer, count"
scalar UAVNetwork_Multi.basicHosts[1].lo[0].lo passedUpPk:sum(packetBytes) 168
attr interpolationmode none
attr source packetSentToUpper
attr title "packets passed to higher layer, sum(packetBytes)"
scalar UAVNetwork_Multi.basicHosts[1].wlan[0].mac numRetry 68
scalar UAVNetwork_Multi.basicHosts[1].wlan[0].mac numSentWithoutRetry 74
scalar UAVNetwork_Multi.basicHosts[1].wlan[0].mac numGivenUp 2
scalar UAVNetwork_Multi.basicHosts[1].wlan[0].mac numCollision 1345
scalar UAVNetwork_Multi.basicHosts[1].wlan[0].mac numSent 101
scalar UAVNetwork_Multi.basicHosts[1].wlan[0].mac numReceived 80
scalar UAVNetwork_Multi.basicHosts[1].wlan[0].mac numSentBroadcast 86
scalar UAVNetwork_Multi.basicHosts[1].wlan[0].mac numReceivedBroadcast 1153
scalar UAVNetwork_Multi.basicHosts[1].wlan[0].mac packetDropIncorrectlyReceived:count 1345
attr interpolationmode none
attr source packetDropReasonIsIncorrectlyReceived(packetDropped)
attr title "packet drop: incorrectly received, count"
scalar UAVNetwork_Multi.basicHosts[1].wlan[0].mac packetDropIncorrectlyReceived:sum(packetBytes) 91437
attr interpolationmode none
attr source packetDropReasonIsIncorrectlyReceived(packetDropped)
attr title "packet drop: incorrectly received, sum(packetBytes)"
scalar UAVNetwork_Multi.basicHosts[1].wlan[0].mac packetDropNotAddressedToUs:count 2726
attr interpolationmode none
attr source packetDropReasonIsNotAddressedToUs(packetDropped)
attr title "packet drop: not addressed to us, count"
scalar UAVNetwork_Multi.basicHosts[1].wlan[0].mac packetDropNotAddressedToUs:sum(packetBytes) 218956
attr interpolationmode none
attr source packetDropReasonIsNotAddressedToUs(packetDropped)
attr title "packet drop: not addressed to us, sum(packetBytes)"
scalar UAVNetwork_Multi.basicHosts[1].wlan[0].mac packetDropQueueOverflow:count 0
attr interpolationmode none
attr source packetDropReasonIsQueueOverflow(packetDropped)
attr title "packet drop: queue overflow, count"
scalar UAVNetwork_Multi.basicHosts[1].wlan[0].mac packetDropQueueOverflow:sum(packetBytes) 0
attr interpolationmode none
attr source packetDropReasonIsQueueOverflow(packetDropped)
attr title "packet drop: queue overflow, sum(packetBytes)"
scalar UAVNetwork_Multi.basicHosts[1].wlan[0].mac packetDropRetryLimitReached:count 2
attr interpolationmode none
attr source packetDropReasonIsRetryLimitReached(packetDropped)
attr title "packet drop: retry limit reached, count"
scalar UAVNetwork_Multi.basicHosts[1].wlan[0].mac packetDropRetryLimitReached:sum(packetBytes) 136
attr interpolationmode none
attr source packetDropReasonIsRetryLimitReached(packetDropped)
attr title "packet drop: retry limit reached, sum(packetBytes)"
scalar UAVNetwork_Multi.basicHosts[1].wlan[0].mac linkBroken:count 2
attr interpolationmode none
attr source linkBroken
attr title "link break, count"
statistic UAVNetwork_Multi.basicHosts[1].wlan[0].radio minSnir:histogram
field count 7007
field mean 29.403793847386
field stddev 92.713189019837
field min 0.028650301094668
field max 1422.9370676413
field sum 206032.38348863
field sqrsum 66279856.070091
attr source minimumSnir(packetSentToUpper)
attr title "Min SNIR, histogram"
bin	-inf	0
bin	0	5606
bin	20	548
bin	40	210
bin	60	140
bin	80	80
bin	100	66
bin	120	47
bin	140	46
bin	160	42
bin	180	28
bin	200	24
bin	220	14
bin	240	11
bin	260	3
bin	280	7
bin	300	5
bin	320	9
bin	340	9
bin	360	8
bin	380	8
bin	400	3
bin	420	10
bin	440	4
bin	460	7
bin	480	3
bin	500	4
bin	520	5
bin	540	5
bin	560	1
bin	580	4
bin	600	1
bin	620	0
bin	640	4
bin	660	2
bin	680	2
bin	700	6
bin	720	3
bin	740	1
bin	760	0
bin	780	1
bin	800	1
bin	820	3
bin	840	3
bin	860	2
bin	880	4
bin	900	3
bin	920	2
bin	940	1
bin	960	1
bin	980	1
bin	1000	0
bin	1020	1
bin	1040	1
bin	1060	0
bin	1080	0
bin	1100	1
bin	1120	0
bin	1140	0
bin	1160	2
bin	1180	0
bin	1200	1
bin	1220	0
bin	1240	0
bin	1260	0
bin	1280	0
bin	1300	1
bin	1320	0
bin	1340	0
bin	1360	0
bin	1380	1
bin	1400	0
bin	1420	1
bin	1440	0
statistic UAVNetwork_Multi.basicHosts[1].wlan[0].radio packetErrorRate:histogram
field count 7007
field mean 0.044724607644378
field stddev 0.1849552224322
field min 0
field max 1
field sum 313.38532576416
field sqrsum 253.68032647674
attr source packetErrorRate(packetSentToUpper)
attr title "Packet error rate, histogram"
bin	-inf	0
bin	0	6418
bin	0.02	49
bin	0.04	35
bin	0.06	31
bin	0.08	21
bin	0.1	11
bin	0.12	11
bin	0.14	13
bin	0.16	7
bin	0.18	8
bin	0.2	7
bin	0.22	7
bin	0.24	10
bin	0.26	13
bin	0.28	12
bin	0.3	7
bin	0.32	13
bin	0.34	4
bin	0.36	5
bin	0.38	2
bin	0.4	4
bin	0.42	9
bin	0.44	6
bin	0.46	6
bin	0.48	6
bin	0.5	5
bin	0.52	3
bin	0.54	4
bin	0.56	4
bin	0.58	6
bin	0.6	4
bin	0.62	4
bin	0.64	4
bin	0.66	7
bin	0.68	1
bin	0.7	3
bin	0.72	7
bin	0.74	6
bin	0.76	9
bin	0.78	6
bin	0.8	2
bin	0.82	6
bin	0.84	6
bin	0.86	5
bin	0.88	6
bin	0.9	9
bin	0.92	13
bin	0.94	17
bin	0.96	11
bin	0.98	120
bin	1	24
bin	1.02	0
bin	1.04	0
bin	1.06	0
bin	1.08	0
bin	1.1	0
bin	1.12	0
bin	1.14	0
bin	1.16	0
bin	1.18	0
bin	1.2	0
bin	1.22	0
bin	1.24	0
bin	1.26	0
statistic UAVNetwork_Multi.basicHosts[1].wlan[0].radio bitErrorRate:histogram
field count 7007
field mean 0.00083509373294278
field stddev 0.0076873942567613
field min 0
field max 0.22453343493525
field sum 5.8515017867301
field sqrsum 0.41891334186536
attr source bitErrorRate(packetSentToUpper)
attr title "Bit error rate, histogram"
bin	-inf	0
bin	0	6811
bin	0.004	61
bin	0.008	28
bin	0.012	18
bin	0.016	14
bin	0.02	13
bin	0.024	8
bin	0.028	8
bin	0.032	4
bin	0.036	1
bin	0.04	7
bin	0.044	1
bin	0.048	4
bin	0.052	0
bin	0.056	4
bin	0.06	0
bin	0.064	3
bin	0.068	1
bin	0.072	3
bin	0.076	2
bin	0.08	4
bin	0.084	0
bin	0.088	1
bin	0.092	2
bin	0.096	1
bin	0.1	0
bin	0.104	0
bin	0.108	0
bin	0.112	0
bin	0.116	0
bin	0.12	1
bin	0.124	1
bin	0.128	1
bin	0.132	0
bin	0.136	0
bin	0.14	0
bin	0.144	0
bin	0.148	1
bin	0.152	0
bin	0.156	0
bin	0.16	0
bin	0.164	0
bin	0.168	0
bin	0.172	0
bin	0.176	0
bin	0.18	0
bin	0.184	1
bin	0.188	0
bin	0.192	1
bin	0.196	1
bin	0.2	0
bin	0.204	0
bin	0.208	0
bin	0.212	0
bin	0.216	0
bin	0.22	0
bin	0.224	1
bin	0.228	0
statistic UAVNetwork_Multi.basicHosts[1].wlan[0].radio symbolErrorRate:histogram
field count 7007
field mean 0.00083509373294278
field stddev 0.0076873942567613
field min 0
field max 0.22453343493525
field sum 5.8515017867301
field sqrsum 0.41891334186536
attr source symbolErrorRate(packetSentToUpper)
attr title "Symbol error rate, histogram"
bin	-inf	0
bin	0	6811
bin	0.004	61
bin	0.008	28
bin	0.012	18
bin	0.016	14
bin	0.02	13
bin	0.024	8
bin	0.028	8
bin	0.032	4
bin	0.036	1
bin	0.04	7
bin	0.044	1
bin	0.048	4
bin	0.052	0
bin	0.056	4
bin	0.06	0
bin	0.064	3
bin	0.068	1
bin	0.072	3
bin	0.076	2
bin	0.08	4
bin	0.084	0
bin	0.088	1
bin	0.092	2
bin	0.096	1
bin	0.1	0
bin	0.104	0
bin	0.108	0
bin	0.112	0
bin	0.116	0
bin	0.12	1
bin	0.124	1
bin	0.128	1
bin	0.132	0
bin	0.136	0
bin	0.14	0
bin	0.144	0
bin	0.148	1
bin	0.152	0
bin	0.156	0
bin	0.16	0
bin	0.164	0
bin	0.168	0
bin	0.172	0
bin	0.176	0
bin	0.18	0
bin	0.184	1
bin	0.188	0
bin	0.192	1
bin	0.196	1
bin	0.2	0
bin	0.204	0
bin	0.208	0
bin	0.212	0
bin	0.216	0
bin	0.22	0
bin	0.224	1
bin	0.228	0
scalar UAVNetwork_Multi.basicHosts[1].wlan[0].radio transmissionState:count 1348
attr interpolationmode sample-hold
attr source transmissionStateChanged
attr title "Radio transmission state, count"
scalar UAVNetwork_Multi.basicHosts[1].wlan[0].radio receptionState:count 16348
attr interpolationmode sample-hold
attr source receptionStateChanged
attr title "Radio reception state, count"
scalar UAVNetwork_Multi.basicHosts[1].wlan[0].radio radioMode:count 677
attr interpolationmode sample-hold
attr source radioModeChanged
attr title "Radio mode, count"
scalar UAVNetwork_Multi.basicHosts[1].ipv4.ip packetDropAddressResolutionFailed:count 0
attr interpolationmode none
attr source packetDropReasonIsAddressResolutionFailed(packetDropped)
attr title "packet drop: address resolution failed, count"
scalar UAVNetwork_Multi.basicHosts[1].ipv4.ip packetDropAddressResolutionFailed:sum(packetBytes) 0
attr interpolationmode none
attr source packetDropReasonIsAddressResolutionFailed(packetDropped)
attr title "packet drop: address resolution failed, sum(packetBytes)"
scalar UAVNetwork_Multi.basicHosts[1].ipv4.ip packetDropHopLimitReached:count 0
attr interpolationmode none
attr source packetDropReasonIsHopLimitReached(packetDropped)
attr title "packet drop: hop limit reached, count"
scalar UAVNetwork_Multi.basicHosts[1].ipv4.ip packetDropHopLimitReached:sum(packetBytes) 0
attr interpolationmode none
attr source packetDropReasonIsHopLimitReached(packetDropped)
attr title "packet drop: hop limit reached, sum(packetBytes)"
scalar UAVNetwork_Multi.basicHosts[1].ipv4.ip packetDropForwardingDisabled:count 13
attr interpolationmode none
attr source packetDropReasonIsForwardingDisabled(packetDropped)
attr title "packet drop: forwarding disabled, count"
scalar UAVNetwork_Multi.basicHosts[1].ipv4.ip packetDropForwardingDisabled:sum(packetBytes) 1092
attr interpolationmode none
attr source packetDropReasonIsForwardingDisabled(packetDropped)
attr title "packet drop: forwarding disabled, sum(packetBytes)"
scalar UAVNetwork_Multi.basicHosts[1].ipv4.ip packetDropNoInterfaceFound:count 0
attr interpolationmode none
attr source packetDropReasonIsNoInterfaceFound(packetDropped)
attr title "packet drop: no interface found, count"
scalar UAVNetwork_Multi.basicHosts[1].ipv4.ip packetDropNoInterfaceFound:sum(packetBytes) 0
attr interpolationmode none
attr source packetDropReasonIsNoInterfaceFound(packetDropped)
attr title "packet drop: no interface found, sum(packetBytes)"
scalar UAVNetwork_Multi.basicHosts[1].ipv4.ip packetDropNoRouteFound:count 0
attr interpolationmode none
attr source packetDropReasonIsNoRouteFound(packetDropped)
attr title "packet drop: no route found, count"
scalar UAVNetwork_Multi.basicHosts[1].ipv4.ip packetDropNoRouteFound:sum(packetBytes) 0
attr interpolationmode none
attr source packetDropReasonIsNoRouteFound(packetDropped)
attr title "packet drop: no route found, sum(packetBytes)"
scalar UAVNetwork_Multi.basicHosts[1].ipv4.ip packetDropUndefined:count 0
attr interpolationmode none
attr source packetDropReasonIsUndefined(packetDropped)
attr title "packet drop: undefined, count"
scalar UAVNetwork_Multi.basicHosts[1].ipv4.ip packetDropUndefined:sum(packetBytes) 0
attr interpolationmode none
attr source packetDropReasonIsUndefined(packetDropped)
attr title "packet drop: undefined, sum(packetBytes)"
scalar UAVNetwork_Multi.basicHosts[1].udp packetReceived:count 0
attr interpolationmode none
attr source packetReceived
attr title "packets received, count"
scalar UAVNetwork_Multi.basicHosts[1].udp packetReceived:sum(packetBytes) 0
attr interpolationmode none
attr source packetReceived
attr title "packets received, sum(packetBytes)"
scalar UAVNetwork_Multi.basicHosts[1].udp packetSent:count 0
attr interpolationmode none
attr source packetSent
attr title "packets sent, count"
scalar UAVNetwork_Multi.basicHosts[1].udp packetSent:sum(packetBytes) 0
attr interpolationmode none
attr source packetSent
attr title "packets sent, sum(packetBytes)"
scalar UAVNetwork_Multi.basicHosts[1].udp passedUpPk:count 0
attr interpolationmode none
attr source packetSentToUpper
attr title "packets passed up, count"
scalar UAVNetwork_Multi.basicHosts[1].udp droppedPkWrongPort:count 0
attr interpolationmode none
attr source packetDropReasonIsNoPortFound(packetDropped)
attr title "packets dropped (wrong port), count"
scalar UAVNetwork_Multi.basicHosts[1].udp droppedPkBadChecksum:count 0
attr interpolationmode none
attr source packetDropReasonIsIncorrectlyReceived(packetDropped)
attr title "packets dropped (checksum error), count"
scalar UAVNetwork_Multi.basicHosts[1].app[0] "Pings sent" 16
scalar UAVNetwork_Multi.basicHosts[1].app[0] "ping loss rate (%)" 56.25
scalar UAVNetwork_Multi.basicHosts[1].app[0] "ping out-of-order rate (%)" 0
scalar UAVNetwork_Multi.basicHosts[1].app[0] pingRxSeq:count 7
attr interpolationmode none
attr title "ping rx seq, count"
scalar UAVNetwork_Multi.basicHosts[1].app[0] pingTxSeq:count 16
attr interpolationmode none
attr title "ping tx seq, count"
scalar UAVNetwork_Multi.basicHosts[1].app[0] numOutOfOrderArrivals:last nan
attr interpolationmode none
attr title "ping out-of-order arrivals, last"
scalar UAVNetwork_Multi.basicHosts[1].app[0] numLost:last 2
attr interpolationmode none
attr title "pings lost, last"
statistic UAVNetwork_Multi.basicHosts[1].app[0] rtt:histogram
field count 6
field mean 0.0031928639921667
field stddev 0.0012750650694146
field min 0.0022873473
field max 0.005662703595
field sum 0.019157183953
field sqrsum 6.9295237491053e-005
attr interpolationmode none
attr title "ping round-trip time, histogram"
attr unit s
bin	-inf	0
bin	0.0014	0
bin	0.0015	0
bin	0.0016	0
bin	0.0017	0
bin	0.0018	0
bin	0.0019	0
bin	0.002	0
bin	0.0021	0
bin	0.0022	1
bin	0.0023	0
bin	0.0024	1
bin	0.0025	1
bin	0.0026	0
bin	0.0027	0
bin	0.0028	1
bin	0.0029	0
bin	0.003	0
bin	0.0031	0
bin	0.0032	0
bin	0.0033	0
bin	0.0034	1
bin	0.0035	0
bin	0.0036	0
bin	0.0037	0
bin	0.0038	0
bin	0.0039	0
bin	0.004	0
bin	0.0041	0
bin	0.0042	0
bin	0.0043	0
bin	0.0044	0
bin	0.0045	0
bin	0.0046	0
bin	0.0047	0
bin	0.0048	0
bin	0.0049	0
bin	0.005	0
bin	0.0051	0
bin	0.0052	0
bin	0.0053	0
bin	0.0054	0
bin	0.0055	0
bin	0.0056	1
bin	0.0057	0
bin	0.0058	0
bin	0.0059	0
bin	0.006	0
bin	0.0061	0
bin	0.0062	0
bin	0.0063	0
bin	0.0064	0
bin	0.0065	0
bin	0.0066	0
scalar UAVNetwork_Multi.basicHosts[2].lo[0].lo rcvdPkFromHl:count 2
attr interpolationmode none
attr source packetReceivedFromUpper
attr title "packets received from higher layer, count"
scalar UAVNetwork_Multi.basicHosts[2].lo[0].lo rcvdPkFromHl:sum(packetBytes) 168
attr interpolationmode none
attr source packetReceivedFromUpper
attr title "packets received from higher layer, sum(packetBytes)"
scalar UAVNetwork_Multi.basicHosts[2].lo[0].lo passedUpPk:count 2
attr interpolationmode none
attr source packetSentToUpper
attr title "packets passed to higher layer, count"
scalar UAVNetwork_Multi.basicHosts[2].lo[0].lo passedUpPk:sum(packetBytes) 168
attr interpolationmode none
attr source packetSentToUpper
attr title "packets passed to higher layer, sum(packetBytes)"
scalar UAVNetwork_Multi.basicHosts[2].wlan[0].mac numRetry 75
scalar UAVNetwork_Multi.basicHosts[2].wlan[0].mac numSentWithoutRetry 60
scalar UAVNetwork_Multi.basicHosts[2].wlan[0].mac numGivenUp 4
scalar UAVNetwork_Multi.basicHosts[2].wlan[0].mac numCollision 1521
scalar UAVNetwork_Multi.basicHosts[2].wlan[0].mac numSent 80
scalar UAVNetwork_Multi.basicHosts[2].wlan[0].mac numReceived 95
scalar UAVNetwork_Multi.basicHosts[2].wlan[0].mac numSentBroadcast 90
scalar UAVNetwork_Multi.basicHosts[2].wlan[0].mac numReceivedBroadcast 1126
scalar UAVNetwork_Multi.basicHosts[2].wlan[0].mac packetDropIncorrectlyReceived:count 1521
attr interpolationmode none
attr source packetDropReasonIsIncorrectlyReceived(packetDropped)
attr title "packet drop: incorrectly received, count"
scalar UAVNetwork_Multi.basicHosts[2].wlan[0].mac packetDropIncorrectlyReceived:sum(packetBytes) 104634
attr interpolationmode none
attr source packetDropReasonIsIncorrectlyReceived(packetDropped)
attr title "packet drop: incorrectly received, sum(packetBytes)"
scalar UAVNetwork_Multi.basicHosts[2].wlan[0].mac packetDropNotAddressedToUs:count 2650
attr interpolationmode none
attr source packetDropReasonIsNotAddressedToUs(packetDropped)
attr title "packet drop: not addressed to us, count"
scalar UAVNetwork_Multi.basicHosts[2].wlan[0].mac packetDropNotAddressedToUs:sum(packetBytes) 215064
attr interpolationmode none
attr source packetDropReasonIsNotAddressedToUs(packetDropped)
attr title "packet drop: not addressed to us, sum(packetBytes)"
scalar UAVNetwork_Multi.basicHosts[2].wlan[0].mac packetDropQueueOverflow:count 0
attr interpolationmode none
attr source packetDropReasonIsQueueOverflow(packetDropped)
attr title "packet drop: queue overflow, count"
scalar UAVNetwork_Multi.basicHosts[2].wlan[0].mac packetDropQueueOverflow:sum(packetBytes) 0
attr interpolationmode none
attr source packetDropReasonIsQueueOverflow(packetDropped)
attr title "packet drop: queue overflow, sum(packetBytes)"
scalar UAVNetwork_Multi.basicHosts[2].wlan[0].mac packetDropRetryLimitReached:count 4
attr interpolationmode none
attr source packetDropReasonIsRetryLimitReached(packetDropped)
attr title "packet drop: retry limit reached, count"
scalar UAVNetwork_Multi.basicHosts[2].wlan[0].mac packetDropRetryLimitReached:sum(packetBytes) 308
attr interpolationmode none
attr source packetDropReasonIsRetryLimitReached(packetDropped)
attr title "packet drop: retry limit reached, sum(packetBytes)"
scalar UAVNetwork_Multi.basicHosts[2].wlan[0].mac linkBroken:count 4
attr interpolationmode none
attr source linkBroken
attr title "link break, count"
statistic UAVNetwork_Multi.basicHosts[2].wlan[0].radio minSnir:histogram
field count 7095
field mean 21.846817532378
field stddev 81.729915892985
field min 0.053465615092443
field max 1378.8415524197
field sum 155003.17039222
field sqrsum 50772679.283896
attr source minimumSnir(packetSentToUpper)
attr title "Min SNIR, histogram"
bin	-inf	0
bin	0	5871
bin	20	698
bin	40	197
bin	60	69
bin	80	39
bin	100	32
bin	120	26
bin	140	14
bin	160	19
bin	180	16
bin	200	8
bin	220	7
bin	240	12
bin	260	3
bin	280	4
bin	300	3
bin	320	2
bin	340	3
bin	360	1
bin	380	1
bin	400	1
bin	420	1
bin	440	7
bin	460	1
bin	480	2
bin	500	2
bin	520	3
bin	540	1
bin	560	1
bin	580	0
bin	600	3
bin	620	1
bin	640	2
bin	660	3
bin	680	3
bin	700	3
bin	720	2
bin	740	3
bin	760	4
bin	780	1
bin	800	2
bin	820	2
bin	840	3
bin	860	1
bin	880	2
bin	900	1
bin	920	2
bin	940	1
bin	960	3
bin	980	0
bin	1000	1
bin	1020	2
bin	1040	0
bin	1060	0
bin	1080	0
bin	1100	1
bin	1120	0
bin	1140	1
bin	1160	0
bin	1180	0
bin	1200	0
bin	1220	0
bin	1240	1
bin	1260	0
bin	1280	0
bin	1300	1
bin	1320	0
bin	1340	0
bin	1360	2
bin	1380	0
statistic UAVNetwork_Multi.basicHosts[2].wlan[0].radio packetErrorRate:histogram
field count 7095
field mean 0.046901957541638
field stddev 0.18639509968328
field min 0
field max 1
field sum 332.76938875792
field sqrsum 262.07532256375
attr source packetErrorRate(packetSentToUpper)
attr title "Packet error rate, histogram"
bin	-inf	0
bin	0	6425
bin	0.02	75
bin	0.04	30
bin	0.06	29
bin	0.08	26
bin	0.1	19
bin	0.12	20
bin	0.14	12
bin	0.16	12
bin	0.18	19
bin	0.2	13
bin	0.22	8
bin	0.24	8
bin	0.26	6
bin	0.28	9
bin	0.3	8
bin	0.32	7
bin	0.34	11
bin	0.36	7
bin	0.38	9
bin	0.4	6
bin	0.42	12
bin	0.44	4
bin	0.46	6
bin	0.48	4
bin	0.5	9
bin	0.52	2
bin	0.54	8
bin	0.56	8
bin	0.58	4
bin	0.6	2
bin	0.62	7
bin	0.64	7
bin	0.66	7
bin	0.68	3
bin	0.7	7
bin	0.72	5
bin	0.74	6
bin	0.76	3
bin	0.78	7
bin	0.8	6
bin	0.82	9
bin	0.84	4
bin	0.86	10
bin	0.88	9
bin	0.9	7
bin	0.92	13
bin	0.94	9
bin	0.96	14
bin	0.98	129
bin	1	15
bin	1.02	0
bin	1.04	0
bin	1.06	0
bin	1.08	0
bin	1.1	0
bin	1.12	0
bin	1.14	0
bin	1.16	0
bin	1.18	0
bin	1.2	0
bin	1.22	0
bin	1.24	0
bin	1.26	0
statistic UAVNetwork_Multi.basicHosts[2].wlan[0].radio bitErrorRate:histogram
field count 7095
field mean 0.0006740742834123
field stddev 0.0057813472371226
field min 0
field max 0.15055041609249
field sum 4.7825570408103
field sqrsum 0.24033348357582
attr source bitErrorRate(packetSentToUpper)
attr title "Bit error rate, histogram"
bin	-inf	0
bin	0	6830
bin	0.002	73
bin	0.004	32
bin	0.006	27
bin	0.008	16
bin	0.01	13
bin	0.012	12
bin	0.014	14
bin	0.016	7
bin	0.018	11
bin	0.02	8
bin	0.022	5
bin	0.024	2
bin	0.026	5
bin	0.028	2
bin	0.03	1
bin	0.032	1
bin	0.034	4
bin	0.036	3
bin	0.038	0
bin	0.04	3
bin	0.042	1
bin	0.044	1
bin	0.046	1
bin	0.048	2
bin	0.05	1
bin	0.052	1
bin	0.054	0
bin	0.056	1
bin	0.058	1
bin	0.06	0
bin	0.062	1
bin	0.064	1
bin	0.066	1
bin	0.068	0
bin	0.07	1
bin	0.072	2
bin	0.074	0
bin	0.076	0
bin	0.078	2
bin	0.08	0
bin	0.082	1
bin	0.084	1
bin	0.086	0
bin	0.088	0
bin	0.09	0
bin	0.092	0
bin	0.094	0
bin	0.096	0
bin	0.098	1
bin	0.1	0
bin	0.102	0
bin	0.104	1
bin	0.106	0
bin	0.108	0
bin	0.11	0
bin	0.112	0
bin	0.114	0
bin	0.116	0
bin	0.118	0
bin	0.12	0
bin	0.122	0
bin	0.124	1
bin	0.126	0
bin	0.128	0
bin	0.13	1
bin	0.132	0
bin	0.134	0
bin	0.136	0
bin	0.138	0
bin	0.14	0
bin	0.142	2
bin	0.144	0
bin	0.146	0
bin	0.148	0
bin	0.15	1
bin	0.152	0
bin	0.154	0
bin	0.156	0
bin	0.158	0
bin	0.16	0
bin	0.162	0
bin	0.164	0
bin	0.166	0
bin	0.168	0
bin	0.17	0
bin	0.172	0
bin	0.174	0
bin	0.176	0
bin	0.178	0
bin	0.18	0
bin	0.182	0
bin	0.184	0
bin	0.186	0
bin	0.188	0
bin	0.19	0
statistic UAVNetwork_Multi.basicHosts[2].wlan[0].radio symbolErrorRate:histogram
field count 7095
field mean 0.0006740742834123
field stddev 0.0057813472371226
field min 0
field max 0.15055041609249
field sum 4.7825570408103
field sqrsum 0.24033348357582
attr source symbolErrorRate(packetSentToUpper)
attr title "Symbol error rate, histogram"
bin	-inf	0
bin	0	6830
bin	0.002	73
bin	0.004	32
bin	0.006	27
bin	0.008	16
bin	0.01	13
bin	0.012	12
bin	0.014	14
bin	0.016	7
bin	0.018	11
bin	0.02	8
bin	0.022	5
bin	0.024	2
bin	0.026	5
bin	0.028	2
bin	0.03	1
bin	0.032	1
bin	0.034	4
bin	0.036	3
bin	0.038	0
bin	0.04	3
bin	0.042	1
bin	0.044	1
bin	0.046	1
bin	0.048	2
bin	0.05	1
bin	0.052	1
bin	0.054	0
bin	0.056	1
bin	0.058	1
bin	0.06	0
bin	0.062	1
bin	0.064	1
bin	0.066	1
bin	0.068	0
bin	0.07	1
bin	0.072	2
bin	0.074	0
bin	0.076	0
bin	0.078	2
bin	0.08	0
bin	0.082	1
bin	0.084	1
bin	0.086	0
bin	0.088	0
bin	0.09	0
bin	0.092	0
bin	0.094	0
bin	0.096	0
bin	0.098	1
bin	0.1	0
bin	0.102	0
bin	0.104	1
bin	0.106	0
bin	0.108	0
bin	0.11	0
bin	0.112	0
bin	0.114	0
bin	0.116	0
bin	0.118	0
bin	0.12	0
bin	0.122	0
bin	0.124	1
bin	0.126	0
bin	0.128	0
bin	0.13	1
bin	0.132	0
bin	0.134	0
bin	0.136	0
bin	0.138	0
bin	0.14	0
bin	0.142	2
bin	0.144	0
bin	0.146	0
bin	0.148	0
bin	0.15	1
bin	0.152	0
bin	0.154	0
bin	0.156	0
bin	0.158	0
bin	0.16	0
bin	0.162	0
bin	0.164	0
bin	0.166	0
bin	0.168	0
bin	0.17	0
bin	0.172	0
bin	0.174	0
bin	0.176	0
bin	0.178	0
bin	0.18	0
bin	0.182	0
bin	0.184	0
bin	0.186	0
bin	0.188	0
bin	0.19	0
scalar UAVNetwork_Multi.basicHosts[2].wlan[0].radio transmissionState:count 1376
attr interpolationmode sample-hold
attr source transmissionStateChanged
attr title "Radio transmission state, count"
scalar UAVNetwork_Multi.basicHosts[2].wlan[0].radio receptionState:count 16643
attr interpolationmode sample-hold
attr source receptionStateChanged
attr title "Radio reception state, count"
scalar UAVNetwork_Multi.basicHosts[2].wlan[0].radio radioMode:count 691
attr interpolationmode sample-hold
attr source radioModeChanged
attr title "Radio mode, count"
scalar UAVNetwork_Multi.basicHosts[2].ipv4.ip packetDropAddressResolutionFailed:count 0
attr interpolationmode none
attr source packetDropReasonIsAddressResolutionFailed(packetDropped)
attr title "packet drop: address resolution failed, count"
scalar UAVNetwork_Multi.basicHosts[2].ipv4.ip packetDropAddressResolutionFailed:sum(packetBytes) 0
attr interpolationmode none
attr source packetDropReasonIsAddressResolutionFailed(packetDropped)
attr title "packet drop: address resolution failed, sum(packetBytes)"
scalar UAVNetwork_Multi.basicHosts[2].ipv4.ip packetDropHopLimitReached:count 0
attr interpolationmode none
attr source packetDropReasonIsHopLimitReached(packetDropped)
attr title "packet drop: hop limit reached, count"
scalar UAVNetwork_Multi.basicHosts[2].ipv4.ip packetDropHopLimitReached:sum(packetBytes) 0
attr interpolationmode none
attr source packetDropReasonIsHopLimitReached(packetDropped)
attr title "packet drop: hop limit reached, sum(packetBytes)"
scalar UAVNetwork_Multi.basicHosts[2].ipv4.ip packetDropForwardingDisabled:count 17
attr interpolationmode none
attr source packetDropReasonIsForwardingDisabled(packetDropped)
attr title "packet drop: forwarding disabled, count"
scalar UAVNetwork_Multi.basicHosts[2].ipv4.ip packetDropForwardingDisabled:sum(packetBytes) 1392
attr interpolationmode none
attr source packetDropReasonIsForwardingDisabled(packetDropped)
attr title "packet drop: forwarding disabled, sum(packetBytes)"
scalar UAVNetwork_Multi.basicHosts[2].ipv4.ip packetDropNoInterfaceFound:count 0
attr interpolationmode none
attr source packetDropReasonIsNoInterfaceFound(packetDropped)
attr title "packet drop: no interface found, count"
scalar UAVNetwork_Multi.basicHosts[2].ipv4.ip packetDropNoInterfaceFound:sum(packetBytes) 0
attr interpolationmode none
attr source packetDropReasonIsNoInterfaceFound(packetDropped)
attr title "packet drop: no interface found, sum(packetBytes)"
scalar UAVNetwork_Multi.basicHosts[2].ipv4.ip packetDropNoRouteFound:count 0
attr interpolationmode none
attr source packetDropReasonIsNoRouteFound(packetDropped)
attr title "packet drop: no route found, count"
scalar UAVNetwork_Multi.basicHosts[2].ipv4.ip packetDropNoRouteFound:sum(packetBytes) 0
attr interpolationmode none
attr source packetDropReasonIsNoRouteFound(packetDropped)
attr title "packet drop: no route found, sum(packetBytes)"
scalar UAVNetwork_Multi.basicHosts[2].ipv4.ip packetDropUndefined:count 0
attr interpolationmode none
attr source packetDropReasonIsUndefined(packetDropped)
attr title "packet drop: undefined, count"
scalar UAVNetwork_Multi.basicHosts[2].ipv4.ip packetDropUndefined:sum(packetBytes) 0
attr interpolationmode none
attr source packetDropReasonIsUndefined(packetDropped)
attr title "packet drop: undefined, sum(packetBytes)"
scalar UAVNetwork_Multi.basicHosts[2].udp packetReceived:count 0
attr interpolationmode none
attr source packetReceived
attr title "packets received, count"
scalar UAVNetwork_Multi.basicHosts[2].udp packetReceived:sum(packetBytes) 0
attr interpolationmode none
attr source packetReceived
attr title "packets received, sum(packetBytes)"
scalar UAVNetwork_Multi.basicHosts[2].udp packetSent:count 0
attr interpolationmode none
attr source packetSent
attr title "packets sent, count"
scalar UAVNetwork_Multi.basicHosts[2].udp packetSent:sum(packetBytes) 0
attr interpolationmode none
attr source packetSent
attr title "packets sent, sum(packetBytes)"
scalar UAVNetwork_Multi.basicHosts[2].udp passedUpPk:count 0
attr interpolationmode none
attr source packetSentToUpper
attr title "packets passed up, count"
scalar UAVNetwork_Multi.basicHosts[2].udp droppedPkWrongPort:count 0
attr interpolationmode none
attr source packetDropReasonIsNoPortFound(packetDropped)
attr title "packets dropped (wrong port), count"
scalar UAVNetwork_Multi.basicHosts[2].udp droppedPkBadChecksum:count 0
attr interpolationmode none
attr source packetDropReasonIsIncorrectlyReceived(packetDropped)
attr title "packets dropped (checksum error), count"
scalar UAVNetwork_Multi.basicHosts[2].app[0] "Pings sent" 16
scalar UAVNetwork_Multi.basicHosts[2].app[0] "ping loss rate (%)" 37.5
scalar UAVNetwork_Multi.basicHosts[2].app[0] "ping out-of-order rate (%)" 0
scalar UAVNetwork_Multi.basicHosts[2].app[0] pingRxSeq:count 10
attr interpolationmode none
attr title "ping rx seq, count"
scalar UAVNetwork_Multi.basicHosts[2].app[0] pingTxSeq:count 16
attr interpolationmode none
attr title "ping tx seq, count"
scalar UAVNetwork_Multi.basicHosts[2].app[0] numOutOfOrderArrivals:last nan
attr interpolationmode none
attr title "ping out-of-order arrivals, last"
scalar UAVNetwork_Multi.basicHosts[2].app[0] numLost:last 4
attr interpolationmode none
attr title "pings lost, last"
statistic UAVNetwork_Multi.basicHosts[2].app[0] rtt:histogram
field count 9
field mean 0.012340199988333
field stddev 0.01009747505119
field min 0.003459922917
field max 0.034675181375
field sum 0.111061799895
field sqrsum 0.0021861968410438
attr interpolationmode none
attr title "ping round-trip time, histogram"
attr unit s
bin	-inf	0
bin	0	0
bin	0.0005	0
bin	0.001	0
bin	0.0015	0
bin	0.002	0
bin	0.0025	0
bin	0.003	1
bin	0.0035	2
bin	0.004	0
bin	0.0045	0
bin	0.005	0
bin	0.0055	0
bin	0.006	0
bin	0.0065	1
bin	0.007	0
bin	0.0075	0
bin	0.008	0
bin	0.0085	0
bin	0.009	0
bin	0.0095	0
bin	0.01	1
bin	0.0105	0
bin	0.011	0
bin	0.0115	0
bin	0.012	0
bin	0.0125	0
bin	0.013	1
bin	0.0135	0
bin	0.014	0
bin	0.0145	0
bin	0.015	0
bin	0.0155	0
bin	0.016	0
bin	0.0165	1
bin	0.017	0
bin	0.0175	0
bin	0.018	1
bin	0.0185	0
bin	0.019	0
bin	0.0195	0
bin	0.02	0
bin	0.0205	0
bin	0.021	0
bin	0.0215	0
bin	0.022	0
bin	0.0225	0
bin	0.023	0
bin	0.0235	0
bin	0.024	0
bin	0.0245	0
bin	0.025	0
bin	0.0255	0
bin	0.026	0
bin	0.0265	0
bin	0.027	0
bin	0.0275	0
bin	0.028	0
bin	0.0285	0
bin	0.029	0
bin	0.0295	0
bin	0.03	0
bin	0.0305	0
bin	0.031	0
bin	0.0315	0
bin	0.032	0
bin	0.0325	0
bin	0.033	0
bin	0.0335	0
bin	0.034	0
bin	0.0345	1
bin	0.035	0
bin	0.0355	0
bin	0.036	0
bin	0.0365	0
bin	0.037	0
bin	0.0375	0
bin	0.038	0
bin	0.0385	0
bin	0.039	0
bin	0.0395	0
bin	0.04	0
bin	0.0405	0
bin	0.041	0
bin	0.0415	0
bin	0.042	0
bin	0.0425	0
scalar UAVNetwork_Multi.basicHosts[3].lo[0].lo rcvdPkFromHl:count 2
attr interpolationmode none
attr source packetReceivedFromUpper
attr title "packets received from higher layer, count"
scalar UAVNetwork_Multi.basicHosts[3].lo[0].lo rcvdPkFromHl:sum(packetBytes) 168
attr interpolationmode none
attr source packetReceivedFromUpper
attr title "packets received from higher layer, sum(packetBytes)"
scalar UAVNetwork_Multi.basicHosts[3].lo[0].lo passedUpPk:count 2
attr interpolationmode none
attr source packetSentToUpper
attr title "packets passed to higher layer, count"
scalar UAVNetwork_Multi.basicHosts[3].lo[0].lo passedUpPk:sum(packetBytes) 168
attr interpolationmode none
attr source packetSentToUpper
attr title "packets passed to higher layer, sum(packetBytes)"
scalar UAVNetwork_Multi.basicHosts[3].wlan[0].mac numRetry 101
scalar UAVNetwork_Multi.basicHosts[3].wlan[0].mac numSentWithoutRetry 37
scalar UAVNetwork_Multi.basicHosts[3].wlan[0].mac numGivenUp 6
scalar UAVNetwork_Multi.basicHosts[3].wlan[0].mac numCollision 607
scalar UAVNetwork_Multi.basicHosts[3].wlan[0].mac numSent 58
scalar UAVNetwork_Multi.basicHosts[3].wlan[0].mac numReceived 42
scalar UAVNetwork_Multi.basicHosts[3].wlan[0].mac numSentBroadcast 70
scalar UAVNetwork_Multi.basicHosts[3].wlan[0].mac numReceivedBroadcast 929
scalar UAVNetwork_Multi.basicHosts[3].wlan[0].mac packetDropIncorrectlyReceived:count 607
attr interpolationmode none
attr source packetDropReasonIsIncorrectlyReceived(packetDropped)
attr title "packet drop: incorrectly received, count"
scalar UAVNetwork_Multi.basicHosts[3].wlan[0].mac packetDropIncorrectlyReceived:sum(packetBytes) 43008
attr interpolationmode none
attr source packetDropReasonIsIncorrectlyReceived(packetDropped)
attr title "packet drop: incorrectly received, sum(packetBytes)"
scalar UAVNetwork_Multi.basicHosts[3].wlan[0].mac packetDropNotAddressedToUs:count 2163
attr interpolationmode none
attr source packetDropReasonIsNotAddressedToUs(packetDropped)
attr title "packet drop: not addressed to us, count"
scalar UAVNetwork_Multi.basicHosts[3].wlan[0].mac packetDropNotAddressedToUs:sum(packetBytes) 172956
attr interpolationmode none
attr source packetDropReasonIsNotAddressedToUs(packetDropped)
attr title "packet drop: not addressed to us, sum(packetBytes)"
scalar UAVNetwork_Multi.basicHosts[3].wlan[0].mac packetDropQueueOverflow:count 0
attr interpolationmode none
attr source packetDropReasonIsQueueOverflow(packetDropped)
attr title "packet drop: queue overflow, count"
scalar UAVNetwork_Multi.basicHosts[3].wlan[0].mac packetDropQueueOverflow:sum(packetBytes) 0
attr interpolationmode none
attr source packetDropReasonIsQueueOverflow(packetDropped)
attr title "packet drop: queue overflow, sum(packetBytes)"
scalar UAVNetwork_Multi.basicHosts[3].wlan[0].mac packetDropRetryLimitReached:count 6
attr interpolationmode none
attr source packetDropReasonIsRetryLimitReached(packetDropped)
attr title "packet drop: retry limit reached, count"
scalar UAVNetwork_Multi.basicHosts[3].wlan[0].mac packetDropRetryLimitReached:sum(packetBytes) 444
attr interpolationmode none
attr source packetDropReasonIsRetryLimitReached(packetDropped)
attr title "packet drop: retry limit reached, sum(packetBytes)"
scalar UAVNetwork_Multi.basicHosts[3].wlan[0].mac linkBroken:count 6
attr interpolationmode none
attr source linkBroken
attr title "link break, count"
statistic UAVNetwork_Multi.basicHosts[3].wlan[0].radio minSnir:histogram
field count 4864
field mean 14.147096803621
field stddev 26.558348175589
field min 0.029791238264765
field max 391.60817029367
field sum 68811.478852813
field sqrsum 4403579.5590893
attr source minimumSnir(packetSentToUpper)
attr title "Min SNIR, histogram"
bin	-inf	0
bin	0	2322
bin	6	1211
bin	12	392
bin	18	265
bin	24	163
bin	30	124
bin	36	85
bin	42	51
bin	48	50
bin	54	32
bin	60	21
bin	66	20
bin	72	10
bin	78	12
bin	84	15
bin	90	6
bin	96	7
bin	102	6
bin	108	3
bin	114	9
bin	120	4
bin	126	4
bin	132	1
bin	138	1
bin	144	3
bin	150	3
bin	156	3
bin	162	4
bin	168	4
bin	174	1
bin	180	2
bin	186	1
bin	192	4
bin	198	3
bin	204	2
bin	210	0
bin	216	2
bin	222	1
bin	228	1
bin	234	1
bin	240	2
bin	246	0
bin	252	1
bin	258	1
bin	264	2
bin	270	2
bin	276	1
bin	282	1
bin	288	1
bin	294	0
bin	300	2
bin	306	0
bin	312	0
bin	318	0
bin	324	0
bin	330	0
bin	336	0
bin	342	1
bin	348	0
bin	354	0
bin	360	0
bin	366	0
bin	372	0
bin	378	0
bin	384	0
bin	390	1
bin	396	0
statistic UAVNetwork_Multi.basicHosts[3].wlan[0].radio packetErrorRate:histogram
field count 4864
field mean 0.017702856152492
field stddev 0.11504240376637
field min 0
field max 1
field sum 86.106692325721
field sqrsum 65.884946320712
attr source packetErrorRate(packetSentToUpper)
attr title "Packet error rate, histogram"
bin	-inf	0
bin	0	4686
bin	0.0165	13
bin	0.033	8
bin	0.0495	9
bin	0.066	8
bin	0.0825	4
bin	0.099	2
bin	0.1155	1
bin	0.132	5
bin	0.1485	2
bin	0.165	5
bin	0.1815	4
bin	0.198	3
bin	0.2145	2
bin	0.231	5
bin	0.2475	4
bin	0.264	2
bin	0.2805	2
bin	0.297	0
bin	0.3135	1
bin	0.33	2
bin	0.3465	1
bin	0.363	3
bin	0.3795	1
bin	0.396	1
bin	0.4125	3
bin	0.429	1
bin	0.4455	4
bin	0.462	3
bin	0.4785	1
bin	0.495	1
bin	0.5115	3
bin	0.528	3
bin	0.5445	0
bin	0.561	1
bin	0.5775	1
bin	0.594	0
bin	0.6105	3
bin	0.627	1
bin	0.6435	2
bin	0.66	1
bin	0.6765	1
bin	0.693	0
bin	0.7095	0
bin	0.726	1
bin	0.7425	2
bin	0.759	2
bin	0.7755	2
bin	0.792	3
bin	0.8085	0
bin	0.825	0
bin	0.8415	3
bin	0.858	0
bin	0.8745	1
bin	0.891	0
bin	0.9075	2
bin	0.924	1
bin	0.9405	1
bin	0.957	7
bin	0.9735	6
bin	0.99	30
bin	1.0065	0
statistic UAVNetwork_Multi.basicHosts[3].wlan[0].radio bitErrorRate:histogram
field count 4864
field mean 0.00036427244604453
field stddev 0.0061604890328895
field min 0
field max 0.22008775807309
field sum 1.7718211775606
field sqrsum 0.18520417861402
attr source bitErrorRate(packetSentToUpper)
attr title "Bit error rate, histogram"
bin	-inf	0
bin	0	4817
bin	0.0035	14
bin	0.007	6
bin	0.0105	5
bin	0.014	1
bin	0.0175	4
bin	0.021	1
bin	0.0245	2
bin	0.028	3
bin	0.0315	0
bin	0.035	1
bin	0.0385	0
bin	0.042	2
bin	0.0455	0
bin	0.049	0
bin	0.0525	0
bin	0.056	0
bin	0.0595	1
bin	0.063	0
bin	0.0665	0
bin	0.07	0
bin	0.0735	0
bin	0.077	0
bin	0.0805	1
bin	0.084	0
bin	0.0875	0
bin	0.091	0
bin	0.0945	0
bin	0.098	0
bin	0.1015	0
bin	0.105	0
bin	0.1085	0
bin	0.112	1
bin	0.1155	0
bin	0.119	0
bin	0.1225	0
bin	0.126	0
bin	0.1295	0
bin	0.133	1
bin	0.1365	0
bin	0.14	1
bin	0.1435	0
bin	0.147	0
bin	0.1505	0
bin	0.154	0
bin	0.1575	0
bin	0.161	0
bin	0.1645	0
bin	0.168	1
bin	0.1715	0
bin	0.175	0
bin	0.1785	0
bin	0.182	1
bin	0.1855	0
bin	0.189	0
bin	0.1925	0
bin	0.196	0
bin	0.1995	0
bin	0.203	0
bin	0.2065	0
bin	0.21	0
bin	0.2135	0
bin	0.217	1
bin	0.2205	0
statistic UAVNetwork_Multi.basicHosts[3].wlan[0].radio symbolErrorRate:histogram
field count 4864
field mean 0.00036427244604453
field stddev 0.0061604890328895
field min 0
field max 0.22008775807309
field sum 1.7718211775606
field sqrsum 0.18520417861402
attr source symbolErrorRate(packetSentToUpper)
attr title "Symbol error rate, histogram"
bin	-inf	0
bin	0	4817
bin	0.0035	14
bin	0.007	6
bin	0.0105	5
bin	0.014	1
bin	0.0175	4
bin	0.021	1
bin	0.0245	2
bin	0.028	3
bin	0.0315	0
bin	0.035	1
bin	0.0385	0
bin	0.042	2
bin	0.0455	0
bin	0.049	0
bin	0.0525	0
bin	0.056	0
bin	0.0595	1
bin	0.063	0
bin	0.0665	0
bin	0.07	0
bin	0.0735	0
bin	0.077	0
bin	0.0805	1
bin	0.084	0
bin	0.0875	0
bin	0.091	0
bin	0.0945	0
bin	0.098	0
bin	0.1015	0
bin	0.105	0
bin	0.1085	0
bin	0.112	1
bin	0.1155	0
bin	0.119	0
bin	0.1225	0
bin	0.126	0
bin	0.1295	0
bin	0.133	1
bin	0.1365	0
bin	0.14	1
bin	0.1435	0
bin	0.147	0
bin	0.1505	0
bin	0.154	0
bin	0.1575	0
bin	0.161	0
bin	0.1645	0
bin	0.168	1
bin	0.1715	0
bin	0.175	0
bin	0.1785	0
bin	0.182	1
bin	0.1855	0
bin	0.189	0
bin	0.1925	0
bin	0.196	0
bin	0.1995	0
bin	0.203	0
bin	0.2065	0
bin	0.21	0
bin	0.2135	0
bin	0.217	1
bin	0.2205	0
scalar UAVNetwork_Multi.basicHosts[3].wlan[0].radio transmissionState:count 1108
attr interpolationmode sample-hold
attr source transmissionStateChanged
attr title "Radio transmission state, count"
scalar UAVNetwork_Multi.basicHosts[3].wlan[0].radio receptionState:count 12728
attr interpolationmode sample-hold
attr source receptionStateChanged
attr title "Radio reception state, count"
scalar UAVNetwork_Multi.basicHosts[3].wlan[0].radio radioMode:count 557
attr interpolationmode sample-hold
attr source radioModeChanged
attr title "Radio mode, count"
scalar UAVNetwork_Multi.basicHosts[3].ipv4.ip packetDropAddressResolutionFailed:count 0
attr interpolationmode none
attr source packetDropReasonIsAddressResolutionFailed(packetDropped)
attr title "packet drop: address resolution failed, count"
scalar UAVNetwork_Multi.basicHosts[3].ipv4.ip packetDropAddressResolutionFailed:sum(packetBytes) 0
attr interpolationmode none
attr source packetDropReasonIsAddressResolutionFailed(packetDropped)
attr title "packet drop: address resolution failed, sum(packetBytes)"
scalar UAVNetwork_Multi.basicHosts[3].ipv4.ip packetDropHopLimitReached:count 0
attr interpolationmode none
attr source packetDropReasonIsHopLimitReached(packetDropped)
attr title "packet drop: hop limit reached, count"
scalar UAVNetwork_Multi.basicHosts[3].ipv4.ip packetDropHopLimitReached:sum(packetBytes) 0
attr interpolationmode none
attr source packetDropReasonIsHopLimitReached(packetDropped)
attr title "packet drop: hop limit reached, sum(packetBytes)"
scalar UAVNetwork_Multi.basicHosts[3].ipv4.ip packetDropForwardingDisabled:count 9
attr interpolationmode none
attr source packetDropReasonIsForwardingDisabled(packetDropped)
attr title "packet drop: forwarding disabled, count"
scalar UAVNetwork_Multi.basicHosts[3].ipv4.ip packetDropForwardingDisabled:sum(packetBytes) 756
attr interpolationmode none
attr source packetDropReasonIsForwardingDisabled(packetDropped)
attr title "packet drop: forwarding disabled, sum(packetBytes)"
scalar UAVNetwork_Multi.basicHosts[3].ipv4.ip packetDropNoInterfaceFound:count 0
attr interpolationmode none
attr source packetDropReasonIsNoInterfaceFound(packetDropped)
attr title "packet drop: no interface found, count"
scalar UAVNetwork_Multi.basicHosts[3].ipv4.ip packetDropNoInterfaceFound:sum(packetBytes) 0
attr interpolationmode none
attr source packetDropReasonIsNoInterfaceFound(packetDropped)
attr title "packet drop: no interface found, sum(packetBytes)"
scalar UAVNetwork_Multi.basicHosts[3].ipv4.ip packetDropNoRouteFound:count 0
attr interpolationmode none
attr source packetDropReasonIsNoRouteFound(packetDropped)
attr title "packet drop: no route found, count"
scalar UAVNetwork_Multi.basicHosts[3].ipv4.ip packetDropNoRouteFound:sum(packetBytes) 0
attr interpolationmode none
attr source packetDropReasonIsNoRouteFound(packetDropped)
attr title "packet drop: no route found, sum(packetBytes)"
scalar UAVNetwork_Multi.basicHosts[3].ipv4.ip packetDropUndefined:count 0
attr interpolationmode none
attr source packetDropReasonIsUndefined(packetDropped)
attr title "packet drop: undefined, count"
scalar UAVNetwork_Multi.basicHosts[3].ipv4.ip packetDropUndefined:sum(packetBytes) 0
attr interpolationmode none
attr source packetDropReasonIsUndefined(packetDropped)
attr title "packet drop: undefined, sum(packetBytes)"
scalar UAVNetwork_Multi.basicHosts[3].udp packetReceived:count 0
attr interpolationmode none
attr source packetReceived
attr title "packets received, count"
scalar UAVNetwork_Multi.basicHosts[3].udp packetReceived:sum(packetBytes) 0
attr interpolationmode none
attr source packetReceived
attr title "packets received, sum(packetBytes)"
scalar UAVNetwork_Multi.basicHosts[3].udp packetSent:count 0
attr interpolationmode none
attr source packetSent
attr title "packets sent, count"
scalar UAVNetwork_Multi.basicHosts[3].udp packetSent:sum(packetBytes) 0
attr interpolationmode none
attr source packetSent
attr title "packets sent, sum(packetBytes)"
scalar UAVNetwork_Multi.basicHosts[3].udp passedUpPk:count 0
attr interpolationmode none
attr source packetSentToUpper
attr title "packets passed up, count"
scalar UAVNetwork_Multi.basicHosts[3].udp droppedPkWrongPort:count 0
attr interpolationmode none
attr source packetDropReasonIsNoPortFound(packetDropped)
attr title "packets dropped (wrong port), count"
scalar UAVNetwork_Multi.basicHosts[3].udp droppedPkBadChecksum:count 0
attr interpolationmode none
attr source packetDropReasonIsIncorrectlyReceived(packetDropped)
attr title "packets dropped (checksum error), count"
scalar UAVNetwork_Multi.basicHosts[3].app[0] "Pings sent" 16
scalar UAVNetwork_Multi.basicHosts[3].app[0] "ping loss rate (%)" 68.75
scalar UAVNetwork_Multi.basicHosts[3].app[0] "ping out-of-order rate (%)" 6.25
scalar UAVNetwork_Multi.basicHosts[3].app[0] pingRxSeq:count 6
attr interpolationmode none
attr title "ping rx seq, count"
scalar UAVNetwork_Multi.basicHosts[3].app[0] pingTxSeq:count 16
attr interpolationmode none
attr title "ping tx seq, count"
scalar UAVNetwork_Multi.basicHosts[3].app[0] numOutOfOrderArrivals:last 1
attr interpolationmode none
attr title "ping out-of-order arrivals, last"
scalar UAVNetwork_Multi.basicHosts[3].app[0] numLost:last 6
attr interpolationmode none
attr title "pings lost, last"
statistic UAVNetwork_Multi.basicHosts[3].app[0] rtt:histogram
field count 4
field mean 0.00868229887225
field stddev 0.010963258261925
field min 0.002726759861
field max 0.025118864339
field sum 0.034729195489
field sqrsum 0.00066210834998132
attr interpolationmode none
attr title "ping round-trip time, histogram"
attr unit s
bin	-inf	0
bin	0	0
bin	0.0005	0
bin	0.001	0
bin	0.0015	0
bin	0.002	0
bin	0.0025	1
bin	0.003	1
bin	0.0035	1
bin	0.004	0
bin	0.0045	0
bin	0.005	0
bin	0.0055	0
bin	0.006	0
bin	0.0065	0
bin	0.007	0
bin	0.0075	0
bin	0.008	0
bin	0.0085	0
bin	0.009	0
bin	0.0095	0
bin	0.01	0
bin	0.0105	0
bin	0.011	0
bin	0.0115	0
bin	0.012	0
bin	0.0125	0
bin	0.013	0
bin	0.0135	0
bin	0.014	0
bin	0.0145	0
bin	0.015	0
bin	0.0155	0
bin	0.016	0
bin	0.0165	0
bin	0.017	0
bin	0.0175	0
bin	0.018	0
bin	0.0185	0
bin	0.019	0
bin	0.0195	0
bin	0.02	0
bin	0.0205	0
bin	0.021	0
bin	0.0215	0
bin	0.022	0
bin	0.0225	0
bin	0.023	0
bin	0.0235	0
bin	0.024	0
bin	0.0245	0
bin	0.025	1
bin	0.0255	0
bin	0.026	0
bin	0.0265	0
bin	0.027	0
bin	0.0275	0
bin	0.028	0
bin	0.0285	0
bin	0.029	0
bin	0.0295	0
bin	0.03	0
bin	0.0305	0
bin	0.031	0
scalar UAVNetwork_Multi.basicHosts[4].lo[0].lo rcvdPkFromHl:count 2
attr interpolationmode none
attr source packetReceivedFromUpper
attr title "packets received from higher layer, count"
scalar UAVNetwork_Multi.basicHosts[4].lo[0].lo rcvdPkFromHl:sum(packetBytes) 168
attr interpolationmode none
attr source packetReceivedFromUpper
attr title "packets received from higher layer, sum(packetBytes)"
scalar UAVNetwork_Multi.basicHosts[4].lo[0].lo passedUpPk:count 2
attr interpolationmode none
attr source packetSentToUpper
attr title "packets passed to higher layer, count"
scalar UAVNetwork_Multi.basicHosts[4].lo[0].lo passedUpPk:sum(packetBytes) 168
attr interpolationmode none
attr source packetSentToUpper
attr title "packets passed to higher layer, sum(packetBytes)"
scalar UAVNetwork_Multi.basicHosts[4].wlan[0].mac numRetry 113
scalar UAVNetwork_Multi.basicHosts[4].wlan[0].mac numSentWithoutRetry 39
scalar UAVNetwork_Multi.basicHosts[4].wlan[0].mac numGivenUp 5
scalar UAVNetwork_Multi.basicHosts[4].wlan[0].mac numCollision 830
scalar UAVNetwork_Multi.basicHosts[4].wlan[0].mac numSent 63
scalar UAVNetwork_Multi.basicHosts[4].wlan[0].mac numReceived 87
scalar UAVNetwork_Multi.basicHosts[4].wlan[0].mac numSentBroadcast 80
scalar UAVNetwork_Multi.basicHosts[4].wlan[0].mac numReceivedBroadcast 1006
scalar UAVNetwork_Multi.basicHosts[4].wlan[0].mac packetDropIncorrectlyReceived:count 830
attr interpolationmode none
attr source packetDropReasonIsIncorrectlyReceived(packetDropped)
attr title "packet drop: incorrectly received, count"
scalar UAVNetwork_Multi.basicHosts[4].wlan[0].mac packetDropIncorrectlyReceived:sum(packetBytes) 56560
attr interpolationmode none
attr source packetDropReasonIsIncorrectlyReceived(packetDropped)
attr title "packet drop: incorrectly received, sum(packetBytes)"
scalar UAVNetwork_Multi.basicHosts[4].wlan[0].mac packetDropNotAddressedToUs:count 2367
attr interpolationmode none
attr source packetDropReasonIsNotAddressedToUs(packetDropped)
attr title "packet drop: not addressed to us, count"
scalar UAVNetwork_Multi.basicHosts[4].wlan[0].mac packetDropNotAddressedToUs:sum(packetBytes) 185796
attr interpolationmode none
attr source packetDropReasonIsNotAddressedToUs(packetDropped)
attr title "packet drop: not addressed to us, sum(packetBytes)"
scalar UAVNetwork_Multi.basicHosts[4].wlan[0].mac packetDropQueueOverflow:count 0
attr interpolationmode none
attr source packetDropReasonIsQueueOverflow(packetDropped)
attr title "packet drop: queue overflow, count"
scalar UAVNetwork_Multi.basicHosts[4].wlan[0].mac packetDropQueueOverflow:sum(packetBytes) 0
attr interpolationmode none
attr source packetDropReasonIsQueueOverflow(packetDropped)
attr title "packet drop: queue overflow, sum(packetBytes)"
scalar UAVNetwork_Multi.basicHosts[4].wlan[0].mac packetDropRetryLimitReached:count 5
attr interpolationmode none
attr source packetDropReasonIsRetryLimitReached(packetDropped)
attr title "packet drop: retry limit reached, count"
scalar UAVNetwork_Multi.basicHosts[4].wlan[0].mac packetDropRetryLimitReached:sum(packetBytes) 376
attr interpolationmode none
attr source packetDropReasonIsRetryLimitReached(packetDropped)
attr title "packet drop: retry limit reached, sum(packetBytes)"
scalar UAVNetwork_Multi.basicHosts[4].wlan[0].mac linkBroken:count 5
attr interpolationmode none
attr source linkBroken
attr title "link break, count"
statistic UAVNetwork_Multi.basicHosts[4].wlan[0].radio minSnir:histogram
field count 5497
field mean 9.8993828215058
field stddev 10.693929101669
field min 0.038884310662208
field max 87.32428982288
field sum 54416.907369817
field sqrsum 1167217.015511
attr source minimumSnir(packetSentToUpper)
attr title "Min SNIR, histogram"
bin	-inf	0
bin	0	356
bin	1	352
bin	2	218
bin	3	581
bin	4	538
bin	5	483
bin	6	396
bin	7	307
bin	8	285
bin	9	214
bin	10	177
bin	11	177
bin	12	155
bin	13	132
bin	14	110
bin	15	104
bin	16	92
bin	17	76
bin	18	89
bin	19	58
bin	20	60
bin	21	56
bin	22	42
bin	23	34
bin	24	36
bin	25	26
bin	26	26
bin	27	18
bin	28	11
bin	29	12
bin	30	11
bin	31	14
bin	32	14
bin	33	14
bin	34	11
bin	35	10
bin	36	7
bin	37	13
bin	38	12
bin	39	9
bin	40	8
bin	41	8
bin	42	6
bin	43	7
bin	44	5
bin	45	15
bin	46	7
bin	47	5
bin	48	7
bin	49	4
bin	50	4
bin	51	4
bin	52	3
bin	53	0
bin	54	6
bin	55	5
bin	56	6
bin	57	6
bin	58	2
bin	59	3
bin	60	5
bin	61	6
bin	62	3
bin	63	3
bin	64	4
bin	65	3
bin	66	3
bin	67	4
bin	68	3
bin	69	3
bin	70	4
bin	71	0
bin	72	0
bin	73	0
bin	74	2
bin	75	0
bin	76	0
bin	77	0
bin	78	0
bin	79	0
bin	80	1
bin	81	0
bin	82	1
bin	83	0
bin	84	1
bin	85	2
bin	86	1
bin	87	1
bin	88	0
statistic UAVNetwork_Multi.basicHosts[4].wlan[0].radio packetErrorRate:histogram
field count 5497
field mean 0.026386263525504
field stddev 0.14465502351733
field min 0
field max 1
field sum 145.04529059969
field sqrsum 118.83142001597
attr source packetErrorRate(packetSentToUpper)
attr title "Packet error rate, histogram"
bin	-inf	0
bin	0	5219
bin	0.017	24
bin	0.034	23
bin	0.051	7
bin	0.068	5
bin	0.085	9
bin	0.102	7
bin	0.119	5
bin	0.136	5
bin	0.153	8
bin	0.17	7
bin	0.187	2
bin	0.204	4
bin	0.221	2
bin	0.238	4
bin	0.255	2
bin	0.272	2
bin	0.289	2
bin	0.306	0
bin	0.323	2
bin	0.34	1
bin	0.357	2
bin	0.374	3
bin	0.391	3
bin	0.408	0
bin	0.425	2
bin	0.442	0
bin	0.459	1
bin	0.476	0
bin	0.493	4
bin	0.51	6
bin	0.527	2
bin	0.544	4
bin	0.561	2
bin	0.578	1
bin	0.595	4
bin	0.612	3
bin	0.629	0
bin	0.646	4
bin	0.663	4
bin	0.68	0
bin	0.697	2
bin	0.714	3
bin	0.731	0
bin	0.748	2
bin	0.765	0
bin	0.782	0
bin	0.799	4
bin	0.816	1
bin	0.833	1
bin	0.85	3
bin	0.867	2
bin	0.884	0
bin	0.901	4
bin	0.918	3
bin	0.935	4
bin	0.952	3
bin	0.969	7
bin	0.986	73
bin	1.003	0
statistic UAVNetwork_Multi.basicHosts[4].wlan[0].radio bitErrorRate:histogram
field count 5497
field mean 0.0004802161451181
field stddev 0.004911618319428
field min 0
field max 0.18892485670454
field sum 2.6397481497142
field sqrsum 0.13385312353905
attr source bitErrorRate(packetSentToUpper)
attr title "Bit error rate, histogram"
bin	-inf	0
bin	0	5398
bin	0.004	22
bin	0.008	13
bin	0.012	15
bin	0.016	8
bin	0.02	6
bin	0.024	8
bin	0.028	3
bin	0.032	4
bin	0.036	2
bin	0.04	3
bin	0.044	1
bin	0.048	1
bin	0.052	4
bin	0.056	1
bin	0.06	0
bin	0.064	1
bin	0.068	1
bin	0.072	1
bin	0.076	1
bin	0.08	0
bin	0.084	0
bin	0.088	1
bin	0.092	2
bin	0.096	0
bin	0.1	0
bin	0.104	0
bin	0.108	0
bin	0.112	0
bin	0.116	0
bin	0.12	0
bin	0.124	0
bin	0.128	0
bin	0.132	0
bin	0.136	0
bin	0.14	0
bin	0.144	0
bin	0.148	0
bin	0.152	0
bin	0.156	0
bin	0.16	0
bin	0.164	0
bin	0.168	0
bin	0.172	0
bin	0.176	0
bin	0.18	0
bin	0.184	0
bin	0.188	1
bin	0.192	0
statistic UAVNetwork_Multi.basicHosts[4].wlan[0].radio symbolErrorRate:histogram
field count 5497
field mean 0.0004802161451181
field stddev 0.004911618319428
field min 0
field max 0.18892485670454
field sum 2.6397481497142
field sqrsum 0.13385312353905
attr source symbolErrorRate(packetSentToUpper)
attr title "Symbol error rate, histogram"
bin	-inf	0
bin	0	5398
bin	0.004	22
bin	0.008	13
bin	0.012	15
bin	0.016	8
bin	0.02	6
bin	0.024	8
bin	0.028	3
bin	0.032	4
bin	0.036	2
bin	0.04	3
bin	0.044	1
bin	0.048	1
bin	0.052	4
bin	0.056	1
bin	0.06	0
bin	0.064	1
bin	0.068	1
bin	0.072	1
bin	0.076	1
bin	0.08	0
bin	0.084	0
bin	0.088	1
bin	0.092	2
bin	0.096	0
bin	0.1	0
bin	0.104	0
bin	0.108	0
bin	0.112	0
bin	0.116	0
bin	0.12	0
bin	0.124	0
bin	0.128	0
bin	0.132	0
bin	0.136	0
bin	0.14	0
bin	0.144	0
bin	0.148	0
bin	0.152	0
bin	0.156	0
bin	0.16	0
bin	0.164	0
bin	0.168	0
bin	0.172	0
bin	0.176	0
bin	0.18	0
bin	0.184	0
bin	0.188	1
bin	0.192	0
scalar UAVNetwork_Multi.basicHosts[4].wlan[0].radio transmissionState:count 1392
attr interpolationmode sample-hold
attr source transmissionStateChanged
attr title "Radio transmission state, count"
scalar UAVNetwork_Multi.basicHosts[4].wlan[0].radio receptionState:count 13534
attr interpolationmode sample-hold
attr source receptionStateChanged
attr title "Radio reception state, count"
scalar UAVNetwork_Multi.basicHosts[4].wlan[0].radio radioMode:count 699
attr interpolationmode sample-hold
attr source radioModeChanged
attr title "Radio mode, count"
scalar UAVNetwork_Multi.basicHosts[4].ipv4.ip packetDropAddressResolutionFailed:count 0
attr interpolationmode none
attr source packetDropReasonIsAddressResolutionFailed(packetDropped)
attr title "packet drop: address resolution failed, count"
scalar UAVNetwork_Multi.basicHosts[4].ipv4.ip packetDropAddressResolutionFailed:sum(packetBytes) 0
attr interpolationmode none
attr source packetDropReasonIsAddressResolutionFailed(packetDropped)
attr title "packet drop: address resolution failed, sum(packetBytes)"
scalar UAVNetwork_Multi.basicHosts[4].ipv4.ip packetDropHopLimitReached:count 0
attr interpolationmode none
attr source packetDropReasonIsHopLimitReached(packetDropped)
attr title "packet drop: hop limit reached, count"
scalar UAVNetwork_Multi.basicHosts[4].ipv4.ip packetDropHopLimitReached:sum(packetBytes) 0
attr interpolationmode none
attr source packetDropReasonIsHopLimitReached(packetDropped)
attr title "packet drop: hop limit reached, sum(packetBytes)"
scalar UAVNetwork_Multi.basicHosts[4].ipv4.ip packetDropForwardingDisabled:count 7
attr interpolationmode none
attr source packetDropReasonIsForwardingDisabled(packetDropped)
attr title "packet drop: forwarding disabled, count"
scalar UAVNetwork_Multi.basicHosts[4].ipv4.ip packetDropForwardingDisabled:sum(packetBytes) 552
attr interpolationmode none
attr source packetDropReasonIsForwardingDisabled(packetDropped)
attr title "packet drop: forwarding disabled, sum(packetBytes)"
scalar UAVNetwork_Multi.basicHosts[4].ipv4.ip packetDropNoInterfaceFound:count 0
attr interpolationmode none
attr source packetDropReasonIsNoInterfaceFound(packetDropped)
attr title "packet drop: no interface found, count"
scalar UAVNetwork_Multi.basicHosts[4].ipv4.ip packetDropNoInterfaceFound:sum(packetBytes) 0
attr interpolationmode none
attr source packetDropReasonIsNoInterfaceFound(packetDropped)
attr title "packet drop: no interface found, sum(packetBytes)"
scalar UAVNetwork_Multi.basicHosts[4].ipv4.ip packetDropNoRouteFound:count 0
attr interpolationmode none
attr source packetDropReasonIsNoRouteFound(packetDropped)
attr title "packet drop: no route found, count"
scalar UAVNetwork_Multi.basicHosts[4].ipv4.ip packetDropNoRouteFound:sum(packetBytes) 0
attr interpolationmode none
attr source packetDropReasonIsNoRouteFound(packetDropped)
attr title "packet drop: no route found, sum(packetBytes)"
scalar UAVNetwork_Multi.basicHosts[4].ipv4.ip packetDropUndefined:count 0
attr interpolationmode none
attr source packetDropReasonIsUndefined(packetDropped)
attr title "packet drop: undefined, count"
scalar UAVNetwork_Multi.basicHosts[4].ipv4.ip packetDropUndefined:sum(packetBytes) 0
attr interpolationmode none
[...]
attr interpolationmode none
attr source packetDropReasonIsForwardingDisabled(packetDropped)
attr title "packet drop: forwarding disabled, count"
scalar UAVNetwork_Multi.hostRouters[3].ipv4.ip packetDropForwardingDisabled:sum(packetBytes) 0
attr interpolationmode none
attr source packetDropReasonIsForwardingDisabled(packetDropped)
attr title "packet drop: forwarding disabled, sum(packetBytes)"
scalar UAVNetwork_Multi.hostRouters[3].ipv4.ip packetDropNoInterfaceFound:count 0
attr interpolationmode none
attr source packetDropReasonIsNoInterfaceFound(packetDropped)
attr title "packet drop: no interface found, count"
scalar UAVNetwork_Multi.hostRouters[3].ipv4.ip packetDropNoInterfaceFound:sum(packetBytes) 0
attr interpolationmode none
attr source packetDropReasonIsNoInterfaceFound(packetDropped)
attr title "packet drop: no interface found, sum(packetBytes)"
scalar UAVNetwork_Multi.hostRouters[3].ipv4.ip packetDropNoRouteFound:count 0
attr interpolationmode none
attr source packetDropReasonIsNoRouteFound(packetDropped)
attr title "packet drop: no route found, count"
scalar UAVNetwork_Multi.hostRouters[3].ipv4.ip packetDropNoRouteFound:sum(packetBytes) 0
attr interpolationmode none
attr source packetDropReasonIsNoRouteFound(packetDropped)
attr title "packet drop: no route found, sum(packetBytes)"
scalar UAVNetwork_Multi.hostRouters[3].ipv4.ip packetDropUndefined:count 0
attr interpolationmode none
attr source packetDropReasonIsUndefined(packetDropped)
attr title "packet drop: undefined, count"
scalar UAVNetwork_Multi.hostRouters[3].ipv4.ip packetDropUndefined:sum(packetBytes) 0
attr interpolationmode none
attr source packetDropReasonIsUndefined(packetDropped)
attr title "packet drop: undefined, sum(packetBytes)"
scalar UAVNetwork_Multi.hostRouters[3].udp packetReceived:count 0
attr interpolationmode none
attr source packetReceived
attr title "packets received, count"
scalar UAVNetwork_Multi.hostRouters[3].udp packetReceived:sum(packetBytes) 0
attr interpolationmode none
attr source packetReceived
attr title "packets received, sum(packetBytes)"
scalar UAVNetwork_Multi.hostRouters[3].udp packetSent:count 0
attr interpolationmode none
attr source packetSent
attr title "packets sent, count"
scalar UAVNetwork_Multi.hostRouters[3].udp packetSent:sum(packetBytes) 0
attr interpolationmode none
attr source packetSent
attr title "packets sent, sum(packetBytes)"
scalar UAVNetwork_Multi.hostRouters[3].udp passedUpPk:count 0
attr interpolationmode none
attr source packetSentToUpper
attr title "packets passed up, count"
scalar UAVNetwork_Multi.hostRouters[3].udp droppedPkWrongPort:count 0
attr interpolationmode none
attr source packetDropReasonIsNoPortFound(packetDropped)
attr title "packets dropped (wrong port), count"
scalar UAVNetwork_Multi.hostRouters[3].udp droppedPkBadChecksum:count 0
attr interpolationmode none
attr source packetDropReasonIsIncorrectlyReceived(packetDropped)
attr title "packets dropped (checksum error), count"
scalar UAVNetwork_Multi.hostRouters[3].app[0] "Pings sent" 14
scalar UAVNetwork_Multi.hostRouters[3].app[0] "ping loss rate (%)" 71.428571428571
scalar UAVNetwork_Multi.hostRouters[3].app[0] "ping out-of-order rate (%)" 42.857142857143
scalar UAVNetwork_Multi.hostRouters[3].app[0] pingRxSeq:count 10
attr interpolationmode none
attr title "ping rx seq, count"
scalar UAVNetwork_Multi.hostRouters[3].app[0] pingTxSeq:count 14
attr interpolationmode none
attr title "ping tx seq, count"
scalar UAVNetwork_Multi.hostRouters[3].app[0] numOutOfOrderArrivals:last 6
attr interpolationmode none
attr title "ping out-of-order arrivals, last"
scalar UAVNetwork_Multi.hostRouters[3].app[0] numLost:last 9
attr interpolationmode none
attr title "pings lost, last"
statistic UAVNetwork_Multi.hostRouters[3].app[0] rtt:histogram
field count 4
field mean 0.1767554844455
field stddev 0.1991671335134
field min 0.002913367052
field max 0.351619159481
field sum 0.707021937782
field sqrsum 0.24397264634209
attr interpolationmode none
attr title "ping round-trip time, histogram"
attr unit s
bin	-inf	0
bin	0	1
bin	0.005	1
bin	0.01	0
bin	0.015	0
bin	0.02	0
bin	0.025	0
bin	0.03	0
bin	0.035	0
bin	0.04	0
bin	0.045	0
bin	0.05	0
bin	0.055	0
bin	0.06	0
bin	0.065	0
bin	0.07	0
bin	0.075	0
bin	0.08	0
bin	0.085	0
bin	0.09	0
bin	0.095	0
bin	0.1	0
bin	0.105	0
bin	0.11	0
bin	0.115	0
bin	0.12	0
bin	0.125	0
bin	0.13	0
bin	0.135	0
bin	0.14	0
bin	0.145	0
bin	0.15	0
bin	0.155	0
bin	0.16	0
bin	0.165	0
bin	0.17	0
bin	0.175	0
bin	0.18	0
bin	0.185	0
bin	0.19	0
bin	0.195	0
bin	0.2	0
bin	0.205	0
bin	0.21	0
bin	0.215	0
bin	0.22	0
bin	0.225	0
bin	0.23	0
bin	0.235	0
bin	0.24	0
bin	0.245	0
bin	0.25	0
bin	0.255	0
bin	0.26	0
bin	0.265	0
bin	0.27	0
bin	0.275	0
bin	0.28	0
bin	0.285	0
bin	0.29	0
bin	0.295	0
bin	0.3	0
bin	0.305	0
bin	0.31	0
bin	0.315	0
bin	0.32	0
bin	0.325	0
bin	0.33	0
bin	0.335	0
bin	0.34	0
bin	0.345	1
bin	0.35	1
bin	0.355	0
bin	0.36	0
bin	0.365	0
bin	0.37	0
bin	0.375	0
bin	0.38	0
bin	0.385	0
bin	0.39	0
bin	0.395	0
bin	0.4	0
bin	0.405	0
bin	0.41	0
bin	0.415	0
bin	0.42	0
bin	0.425	0
bin	0.43	0
bin	0.435	0
bin	0.44	0
scalar UAVNetwork_Multi.hostRouters[4].lo[0].lo rcvdPkFromHl:count 0
attr interpolationmode none
attr source packetReceivedFromUpper
attr title "packets received from higher layer, count"
scalar UAVNetwork_Multi.hostRouters[4].lo[0].lo rcvdPkFromHl:sum(packetBytes) 0
attr interpolationmode none
attr source packetReceivedFromUpper
attr title "packets received from higher layer, sum(packetBytes)"
scalar UAVNetwork_Multi.hostRouters[4].lo[0].lo passedUpPk:count 0
attr interpolationmode none
attr source packetSentToUpper
attr title "packets passed to higher layer, count"
scalar UAVNetwork_Multi.hostRouters[4].lo[0].lo passedUpPk:sum(packetBytes) 0
attr interpolationmode none
attr source packetSentToUpper
attr title "packets passed to higher layer, sum(packetBytes)"
scalar UAVNetwork_Multi.hostRouters[4].wlan[0].mac numRetry 133
scalar UAVNetwork_Multi.hostRouters[4].wlan[0].mac numSentWithoutRetry 40
scalar UAVNetwork_Multi.hostRouters[4].wlan[0].mac numGivenUp 12
scalar UAVNetwork_Multi.hostRouters[4].wlan[0].mac numCollision 445
scalar UAVNetwork_Multi.hostRouters[4].wlan[0].mac numSent 59
scalar UAVNetwork_Multi.hostRouters[4].wlan[0].mac numReceived 75
scalar UAVNetwork_Multi.hostRouters[4].wlan[0].mac numSentBroadcast 75
scalar UAVNetwork_Multi.hostRouters[4].wlan[0].mac numReceivedBroadcast 772
scalar UAVNetwork_Multi.hostRouters[4].wlan[0].mac packetDropIncorrectlyReceived:count 445
attr interpolationmode none
attr source packetDropReasonIsIncorrectlyReceived(packetDropped)
attr title "packet drop: incorrectly received, count"
scalar UAVNetwork_Multi.hostRouters[4].wlan[0].mac packetDropIncorrectlyReceived:sum(packetBytes) 31397
attr interpolationmode none
attr source packetDropReasonIsIncorrectlyReceived(packetDropped)
attr title "packet drop: incorrectly received, sum(packetBytes)"
scalar UAVNetwork_Multi.hostRouters[4].wlan[0].mac packetDropNotAddressedToUs:count 1342
attr interpolationmode none
attr source packetDropReasonIsNotAddressedToUs(packetDropped)
attr title "packet drop: not addressed to us, count"
scalar UAVNetwork_Multi.hostRouters[4].wlan[0].mac packetDropNotAddressedToUs:sum(packetBytes) 111272
attr interpolationmode none
attr source packetDropReasonIsNotAddressedToUs(packetDropped)
attr title "packet drop: not addressed to us, sum(packetBytes)"
scalar UAVNetwork_Multi.hostRouters[4].wlan[0].mac packetDropQueueOverflow:count 0
attr interpolationmode none
attr source packetDropReasonIsQueueOverflow(packetDropped)
attr title "packet drop: queue overflow, count"
scalar UAVNetwork_Multi.hostRouters[4].wlan[0].mac packetDropQueueOverflow:sum(packetBytes) 0
attr interpolationmode none
attr source packetDropReasonIsQueueOverflow(packetDropped)
attr title "packet drop: queue overflow, sum(packetBytes)"
scalar UAVNetwork_Multi.hostRouters[4].wlan[0].mac packetDropRetryLimitReached:count 12
attr interpolationmode none
attr source packetDropReasonIsRetryLimitReached(packetDropped)
attr title "packet drop: retry limit reached, count"
scalar UAVNetwork_Multi.hostRouters[4].wlan[0].mac packetDropRetryLimitReached:sum(packetBytes) 940
attr interpolationmode none
attr source packetDropReasonIsRetryLimitReached(packetDropped)
attr title "packet drop: retry limit reached, sum(packetBytes)"
scalar UAVNetwork_Multi.hostRouters[4].wlan[0].mac linkBroken:count 12
attr interpolationmode none
attr source linkBroken
attr title "link break, count"
statistic UAVNetwork_Multi.hostRouters[4].wlan[0].radio minSnir:histogram
field count 3495
field mean 16.666911818388
field stddev 94.368407311423
field min 0.010694581163375
field max 1877.527896412
field sum 58250.856805265
field sqrsum 32086316.560659
attr source minimumSnir(packetSentToUpper)
attr title "Min SNIR, histogram"
bin	-inf	0
bin	0	3348
bin	27	79
bin	54	14
bin	81	5
bin	108	3
bin	135	3
bin	162	3
bin	189	2
bin	216	0
bin	243	0
bin	270	1
bin	297	1
bin	324	3
bin	351	1
bin	378	1
bin	405	2
bin	432	0
bin	459	2
bin	486	1
bin	513	1
bin	540	0
bin	567	1
bin	594	1
bin	621	1
bin	648	1
bin	675	0
bin	702	1
bin	729	0
bin	756	2
bin	783	0
bin	810	0
bin	837	0
bin	864	0
bin	891	0
bin	918	2
bin	945	2
bin	972	1
bin	999	1
bin	1026	2
bin	1053	1
bin	1080	0
bin	1107	1
bin	1134	0
bin	1161	0
bin	1188	2
bin	1215	1
bin	1242	0
bin	1269	0
bin	1296	0
bin	1323	1
bin	1350	0
bin	1377	1
bin	1404	1
bin	1431	0
bin	1458	0
bin	1485	1
bin	1512	0
bin	1539	0
bin	1566	0
bin	1593	0
bin	1620	0
bin	1647	0
bin	1674	0
bin	1701	0
bin	1728	0
bin	1755	0
bin	1782	0
bin	1809	0
bin	1836	0
bin	1863	1
bin	1890	0
statistic UAVNetwork_Multi.hostRouters[4].wlan[0].radio packetErrorRate:histogram
field count 3495
field mean 0.013345045553836
field stddev 0.10183176063269
field min 0
field max 1
field sum 46.640934210657
field sqrsum 36.854183304312
attr source packetErrorRate(packetSentToUpper)
attr title "Packet error rate, histogram"
bin	-inf	0
bin	0	3404
bin	0.02	9
bin	0.04	6
bin	0.06	4
bin	0.08	4
bin	0.1	1
bin	0.12	0
bin	0.14	4
bin	0.16	1
bin	0.18	2
bin	0.2	2
bin	0.22	2
bin	0.24	2
bin	0.26	1
bin	0.28	3
bin	0.3	0
bin	0.32	0
bin	0.34	0
bin	0.36	1
bin	0.38	0
bin	0.4	0
bin	0.42	0
bin	0.44	1
bin	0.46	0
bin	0.48	2
bin	0.5	1
bin	0.52	2
bin	0.54	0
bin	0.56	0
bin	0.58	1
bin	0.6	1
bin	0.62	1
bin	0.64	2
bin	0.66	1
bin	0.68	1
bin	0.7	2
bin	0.72	1
bin	0.74	1
bin	0.76	1
bin	0.78	1
bin	0.8	1
bin	0.82	2
bin	0.84	0
bin	0.86	0
bin	0.88	1
bin	0.9	1
bin	0.92	3
bin	0.94	0
bin	0.96	2
bin	0.98	16
bin	1	4
bin	1.02	0
bin	1.04	0
bin	1.06	0
bin	1.08	0
bin	1.1	0
bin	1.12	0
bin	1.14	0
bin	1.16	0
bin	1.18	0
bin	1.2	0
bin	1.22	0
statistic UAVNetwork_Multi.hostRouters[4].wlan[0].radio bitErrorRate:histogram
field count 3495
field mean 0.000283441318954
field stddev 0.00615875355839
field min 0
field max 0.32186706975974
field sum 0.99062740974424
field sqrsum 0.13280906214269
attr source bitErrorRate(packetSentToUpper)
attr title "Bit error rate, histogram"
bin	-inf	0
bin	0	3472
bin	0.006	10
bin	0.012	1
bin	0.018	3
bin	0.024	2
bin	0.03	1
bin	0.036	0
bin	0.042	2
bin	0.048	0
bin	0.054	0
bin	0.06	1
bin	0.066	0
bin	0.072	1
bin	0.078	0
bin	0.084	0
bin	0.09	0
bin	0.096	1
bin	0.102	0
bin	0.108	0
bin	0.114	0
bin	0.12	0
bin	0.126	0
bin	0.132	0
bin	0.138	0
bin	0.144	0
bin	0.15	0
bin	0.156	0
bin	0.162	0
bin	0.168	0
bin	0.174	0
bin	0.18	0
bin	0.186	0
bin	0.192	0
bin	0.198	0
bin	0.204	0
bin	0.21	0
bin	0.216	0
bin	0.222	0
bin	0.228	0
bin	0.234	0
bin	0.24	0
bin	0.246	0
bin	0.252	0
bin	0.258	0
bin	0.264	0
bin	0.27	0
bin	0.276	0
bin	0.282	0
bin	0.288	0
bin	0.294	0
bin	0.3	0
bin	0.306	0
bin	0.312	0
bin	0.318	1
bin	0.324	0
statistic UAVNetwork_Multi.hostRouters[4].wlan[0].radio symbolErrorRate:histogram
field count 3495
field mean 0.000283441318954
field stddev 0.00615875355839
field min 0
field max 0.32186706975974
field sum 0.99062740974424
field sqrsum 0.13280906214269
attr source symbolErrorRate(packetSentToUpper)
attr title "Symbol error rate, histogram"
bin	-inf	0
bin	0	3472
bin	0.006	10
bin	0.012	1
bin	0.018	3
bin	0.024	2
bin	0.03	1
bin	0.036	0
bin	0.042	2
bin	0.048	0
bin	0.054	0
bin	0.06	1
bin	0.066	0
bin	0.072	1
bin	0.078	0
bin	0.084	0
bin	0.09	0
bin	0.096	1
bin	0.102	0
bin	0.108	0
bin	0.114	0
bin	0.12	0
bin	0.126	0
bin	0.132	0
bin	0.138	0
bin	0.144	0
bin	0.15	0
bin	0.156	0
bin	0.162	0
bin	0.168	0
bin	0.174	0
bin	0.18	0
bin	0.186	0
bin	0.192	0
bin	0.198	0
bin	0.204	0
bin	0.21	0
bin	0.216	0
bin	0.222	0
bin	0.228	0
bin	0.234	0
bin	0.24	0
bin	0.246	0
bin	0.252	0
bin	0.258	0
bin	0.264	0
bin	0.27	0
bin	0.276	0
bin	0.282	0
bin	0.288	0
bin	0.294	0
bin	0.3	0
bin	0.306	0
bin	0.312	0
bin	0.318	1
bin	0.324	0
scalar UAVNetwork_Multi.hostRouters[4].wlan[0].radio transmissionState:count 1416
attr interpolationmode sample-hold
attr source transmissionStateChanged
attr title "Radio transmission state, count"
scalar UAVNetwork_Multi.hostRouters[4].wlan[0].radio receptionState:count 10398
attr interpolationmode sample-hold
attr source receptionStateChanged
attr title "Radio reception state, count"
scalar UAVNetwork_Multi.hostRouters[4].wlan[0].radio radioMode:count 711
attr interpolationmode sample-hold
attr source radioModeChanged
attr title "Radio mode, count"
scalar UAVNetwork_Multi.hostRouters[4].ipv4.ip packetDropAddressResolutionFailed:count 0
attr interpolationmode none
attr source packetDropReasonIsAddressResolutionFailed(packetDropped)
attr title "packet drop: address resolution failed, count"
scalar UAVNetwork_Multi.hostRouters[4].ipv4.ip packetDropAddressResolutionFailed:sum(packetBytes) 0
attr interpolationmode none
attr source packetDropReasonIsAddressResolutionFailed(packetDropped)
attr title "packet drop: address resolution failed, sum(packetBytes)"
scalar UAVNetwork_Multi.hostRouters[4].ipv4.ip packetDropHopLimitReached:count 0
attr interpolationmode none
attr source packetDropReasonIsHopLimitReached(packetDropped)
attr title "packet drop: hop limit reached, count"
scalar UAVNetwork_Multi.hostRouters[4].ipv4.ip packetDropHopLimitReached:sum(packetBytes) 0
attr interpolationmode none
attr source packetDropReasonIsHopLimitReached(packetDropped)
attr title "packet drop: hop limit reached, sum(packetBytes)"
scalar UAVNetwork_Multi.hostRouters[4].ipv4.ip packetDropForwardingDisabled:count 0
attr interpolationmode none
attr source packetDropReasonIsForwardingDisabled(packetDropped)
attr title "packet drop: forwarding disabled, count"
scalar UAVNetwork_Multi.hostRouters[4].ipv4.ip packetDropForwardingDisabled:sum(packetBytes) 0
attr interpolationmode none
attr source packetDropReasonIsForwardingDisabled(packetDropped)
attr title "packet drop: forwarding disabled, sum(packetBytes)"
scalar UAVNetwork_Multi.hostRouters[4].ipv4.ip packetDropNoInterfaceFound:count 0
attr interpolationmode none
attr source packetDropReasonIsNoInterfaceFound(packetDropped)
attr title "packet drop: no interface found, count"
scalar UAVNetwork_Multi.hostRouters[4].ipv4.ip packetDropNoInterfaceFound:sum(packetBytes) 0
attr interpolationmode none
attr source packetDropReasonIsNoInterfaceFound(packetDropped)
attr title "packet drop: no interface found, sum(packetBytes)"
scalar UAVNetwork_Multi.hostRouters[4].ipv4.ip packetDropNoRouteFound:count 0
attr interpolationmode none
attr source packetDropReasonIsNoRouteFound(packetDropped)
attr title "packet drop: no route found, count"
scalar UAVNetwork_Multi.hostRouters[4].ipv4.ip packetDropNoRouteFound:sum(packetBytes) 0
attr interpolationmode none
attr source packetDropReasonIsNoRouteFound(packetDropped)
attr title "packet drop: no route found, sum(packetBytes)"
scalar UAVNetwork_Multi.hostRouters[4].ipv4.ip packetDropUndefined:count 0
attr interpolationmode none
attr source packetDropReasonIsUndefined(packetDropped)
attr title "packet drop: undefined, count"
scalar UAVNetwork_Multi.hostRouters[4].ipv4.ip packetDropUndefined:sum(packetBytes) 0
attr interpolationmode none
attr source packetDropReasonIsUndefined(packetDropped)
attr title "packet drop: undefined, sum(packetBytes)"
scalar UAVNetwork_Multi.hostRouters[4].udp packetReceived:count 0
attr interpolationmode none
attr source packetReceived
attr title "packets received, count"
scalar UAVNetwork_Multi.hostRouters[4].udp packetReceived:sum(packetBytes) 0
attr interpolationmode none
attr source packetReceived
attr title "packets received, sum(packetBytes)"
scalar UAVNetwork_Multi.hostRouters[4].udp packetSent:count 0
attr interpolationmode none
attr source packetSent
attr title "packets sent, count"
scalar UAVNetwork_Multi.hostRouters[4].udp packetSent:sum(packetBytes) 0
attr interpolationmode none
attr source packetSent
attr title "packets sent, sum(packetBytes)"
scalar UAVNetwork_Multi.hostRouters[4].udp passedUpPk:count 0
attr interpolationmode none
attr source packetSentToUpper
attr title "packets passed up, count"
scalar UAVNetwork_Multi.hostRouters[4].udp droppedPkWrongPort:count 0
attr interpolationmode none
attr source packetDropReasonIsNoPortFound(packetDropped)
attr title "packets dropped (wrong port), count"
scalar UAVNetwork_Multi.hostRouters[4].udp droppedPkBadChecksum:count 0
attr interpolationmode none
attr source packetDropReasonIsIncorrectlyReceived(packetDropped)
attr title "packets dropped (checksum error), count"
scalar UAVNetwork_Multi.hostRouters[4].app[0] "Pings sent" 14
scalar UAVNetwork_Multi.hostRouters[4].app[0] "ping loss rate (%)" 35.714285714286
scalar UAVNetwork_Multi.hostRouters[4].app[0] "ping out-of-order rate (%)" 14.285714285714
scalar UAVNetwork_Multi.hostRouters[4].app[0] pingRxSeq:count 11
attr interpolationmode none
attr title "ping rx seq, count"
scalar UAVNetwork_Multi.hostRouters[4].app[0] pingTxSeq:count 14
attr interpolationmode none
attr title "ping tx seq, count"
scalar UAVNetwork_Multi.hostRouters[4].app[0] numOutOfOrderArrivals:last 2
attr interpolationmode none
attr title "ping out-of-order arrivals, last"
scalar UAVNetwork_Multi.hostRouters[4].app[0] numLost:last 2
attr interpolationmode none
attr title "pings lost, last"
statistic UAVNetwork_Multi.hostRouters[4].app[0] rtt:histogram
field count 9
field mean 0.0089505622432222
field stddev 0.010637339275169
field min 0.002206157221
field max 0.032592878953
field sum 0.080555060189
field sqrsum 0.0016262369750686
attr interpolationmode none
attr title "ping round-trip time, histogram"
attr unit s
bin	-inf	0
bin	0	0
bin	0.0005	0
bin	0.001	0
bin	0.0015	0
bin	0.002	2
bin	0.0025	3
bin	0.003	1
bin	0.0035	0
bin	0.004	0
bin	0.0045	0
bin	0.005	0
bin	0.0055	0
bin	0.006	0
bin	0.0065	0
bin	0.007	0
bin	0.0075	0
bin	0.008	0
bin	0.0085	0
bin	0.009	0
bin	0.0095	0
bin	0.01	0
bin	0.0105	0
bin	0.011	0
bin	0.0115	0
bin	0.012	0
bin	0.0125	0
bin	0.013	0
bin	0.0135	1
bin	0.014	0
bin	0.0145	0
bin	0.015	0
bin	0.0155	0
bin	0.016	0
bin	0.0165	0
bin	0.017	0
bin	0.0175	0
bin	0.018	1
bin	0.0185	0
bin	0.019	0
bin	0.0195	0
bin	0.02	0
bin	0.0205	0
bin	0.021	0
bin	0.0215	0
bin	0.022	0
bin	0.0225	0
bin	0.023	0
bin	0.0235	0
bin	0.024	0
bin	0.0245	0
bin	0.025	0
bin	0.0255	0
bin	0.026	0
bin	0.0265	0
bin	0.027	0
bin	0.0275	0
bin	0.028	0
bin	0.0285	0
bin	0.029	0
bin	0.0295	0
bin	0.03	0
bin	0.0305	0
bin	0.031	0
bin	0.0315	0
bin	0.032	0
bin	0.0325	1
bin	0.033	0
bin	0.0335	0
bin	0.034	0
bin	0.0345	0
bin	0.035	0
bin	0.0355	0
bin	0.036	0
bin	0.0365	0
bin	0.037	0
bin	0.0375	0
bin	0.038	0
bin	0.0385	0
bin	0.039	0
bin	0.0395	0
bin	0.04	0
bin	0.0405	0

