                                                                
version 2
run General-0-20201224-23:02:38-23404
attr configname General
attr datetime 20201224-23:02:38
attr experiment General
attr inifile multi_test_real.ini
attr iterationvars "$pathlosstype=\"FreeSpacePathLoss\""
attr iterationvarsf pathlosstype=FreeSpacePathLoss-
attr measurement "$pathlosstype=\"FreeSpacePathLoss\""
attr network myuav.UAVNetwork_Multi
attr processid 23404
attr repetition 0
attr replication #0
attr resultdir results
attr runnumber 0
attr seedset 0
itervar pathlosstype "\"FreeSpacePathLoss\""
param *.configurator.addStaticRoutes false
param **.arp.typename "\"GlobalArp\""
param **.basicHosts[*].forwarding false
param **.basicHosts[*].multicastForwarding false
param **.hostRouters[*].forwarding true
param **.hostRouters[*].multicastForwarding true
param *.numHosts 30
param *.configurator.config "xmldoc(\"multi_test.xml\")"
param *.configurator.dumpAddresses true
param *.configurator.dumpTopology true
param *.configurator.dumpLinks true
param *.configurator.dumpRoutes true
param *.configurator.dumpConfig "\"multi_test_dump.xml\""
param *.visualizer.osgVisualizer.typename "\"IntegratedOsgVisualizer\""
param *.visualizer.osgVisualizer.sceneVisualizer.clearColor "\"skyblue\""
param *.visualizer.osgVisualizer.sceneVisualizer.sceneImage "\"showcases/desert\""
param *.visualizer.osgVisualizer.sceneVisualizer.sceneImageSize 2000m
param *.visualizer.osgVisualizer.sceneVisualizer.axisLength 500m
param *.visualizer.osgVisualizer.sceneVisualizer.sceneMinX 0m
param *.visualizer.osgVisualizer.sceneVisualizer.sceneMinY 0m
param *.visualizer.osgVisualizer.sceneVisualizer.sceneMinZ 0m
param *.visualizer.osgVisualizer.sceneVisualizer.sceneMaxX 2000m
param *.visualizer.osgVisualizer.sceneVisualizer.sceneMaxY 2000m
param *.visualizer.osgVisualizer.sceneVisualizer.sceneMaxZ 1000m
param *.visualizer.*.networkRouteVisualizer.displayRoutes true
param *.visualizer.*.networkRouteVisualizer.packetFilter "\"ping*\""
param *.visualizer.*.networkRouteVisualizer.lineWidth 10
param *.visualizer.*.networkRouteVisualizer.lineShift 0
param *.visualizer.*.mobilityVisualizer.displayMovementTrails true
param *.visualizer.*.mobilityVisualizer.animationSpeed 1
param *.hostRouters[*].wlan[0].typename "\"WirelessInterface\""
param *.basicHosts[*].wlan[0].typename "\"WirelessInterface\""
param *.hostRouters[*].wlan[0].mac.typename "\"CsmaCaMac\""
param *.hostRouters[*].wlan[0].mac.ackTimeout 300us
param *.basicHosts[*].wlan[0].mac.typename "\"CsmaCaMac\""
param *.basicHosts[*].wlan[0].mac.ackTimeout 300us
param **.wlan[*].queue.typename "\"DropTailQueue\""
param *.hostRouters[*].wlan[0].mac.maxQueueSize 20000
param *.basicHosts[*].wlan[0].mac.maxQueueSize 10000
param *.radioMedium.typename "\"ApskScalarRadioMedium\""
param *.radioMedium.backgroundNoise.power -90dBm
param *.radioMedium.mediumLimitCache.carrierFrequency 2GHz
param *.hostRouters[*].wlan[0].radio.typename "\"ApskScalarRadio\""
param *.hostRouters[*].wlan[0].radio.carrierFrequency 2GHz
param *.basicHosts[*].wlan[0].radio.typename "\"ApskScalarRadio\""
param *.basicHosts[*].wlan[0].radio.carrierFrequency 2GHz
param **.ignorePartialInterference true
param *.hostRouters[*].wlan[0].radio.bandwidth 10MHz
param *.hostRouters[*].wlan[0].radio.transmitter.preambleDuration 10us
param *.hostRouters[*].wlan[0].radio.transmitter.headerLength 8b
param *.basicHosts[*].wlan[0].radio.bandwidth 10MHz
param *.basicHosts[*].wlan[0].radio.transmitter.preambleDuration 10us
param *.basicHosts[*].wlan[0].radio.transmitter.headerLength 8b
param *.hostRouters[*].wlan[0].radio.receiver.sensitivity -85dBm
param *.hostRouters[*].wlan[0].radio.receiver.energyDetection -85dBm
param *.hostRouters[*].wlan[0].radio.receiver.snirThreshold 4dB
param *.basicHosts[*].wlan[0].radio.receiver.sensitivity -85dBm
param *.basicHosts[*].wlan[0].radio.receiver.energyDetection -85dBm
param *.basicHosts[*].wlan[0].radio.receiver.snirThreshold 4dB
param **.hostRouters[*].**.bitrate 1Mbps
param **.basicHosts[*].**.bitrate 1Mbps
param **.hostRouters[*].wlan[*].radio.transmitter.power 15mW
param **.basicHosts[*].wlan[*].radio.transmitter.power 5mW
param *.radioMedium.pathLoss.typename "\"FreeSpacePathLoss\""
param *.physicalEnvironment.coordinateSystemModule "\"coordinateSystem\""
param *.*.mobility.coordinateSystemModule "\"coordinateSystem\""
param *.physicalEnvironment.config "xmldoc(\"obstacles.xml\")"
param *.radioMedium.obstacleLoss.typename "\"DielectricObstacleLoss\""
param **.hostRouters[*].app[*].typename "\"PingApp\""
param **.basicHosts[*].app[*].typename "\"PingApp\""
param *.hostRouters[*].numApps 1
param *.basicHosts[*].numApps 1
param **.basicHosts[*].app[*].count 1
param **.basicHosts[*].app[*].continuous true
param **.hostRouters[*].app[*].count 1
param **.hostRouters[*].app[*].continuous true
param **.hostRouters[0].app[*].destAddr "\"hostRouters[1] hostRouters[2] hostRouters[3] hostRouters[4]\""
param **.hostRouters[1].app[*].destAddr "\"hostRouters[0] hostRouters[2] hostRouters[3] hostRouters[4]\""
param **.hostRouters[2].app[*].destAddr "\"hostRouters[0] hostRouters[1] hostRouters[3] hostRouters[4]\""
param **.hostRouters[3].app[*].destAddr "\"hostRouters[0] hostRouters[1] hostRouters[2] hostRouters[4]\""
param **.hostRouters[4].app[*].destAddr "\"hostRouters[0] hostRouters[1] hostRouters[2] hostRouters[3]\""
param **.hostRouters[*].app[*].startTime uniform(5s,6s)
param **.hostRouters[*].app[*].printPing true
param **.basicHosts[*].app[*].destAddr "\"*\""
param **.basicHosts[*].app[*].startTime uniform(3s,4s)
param **.basicHosts[*].app[*].hopLimit 1
param **.basicHosts[*].app[*].printPing true
param **.hostRouters[*].mobility.typename "\"MassMobility\""
param **.hostRouters[*].mobility.initFromDisplayString false
param **.basicHosts[*].mobility.typename "\"MassMobility\""
param **.basicHosts[*].mobility.initFromDisplayString false
param **.hostRouters[*].osgModel "\"3d/drone.ive.80.scale.0,0,90.rot\""
param **.basicHosts[*].osgModel "\"3d/drone.ive.10.scale.0,0,90.rot\""
param **.hostRouters[*].mobility.initialMovementHeading "uniform(0deg, 360deg)"
param **.hostRouters[*].mobility.initialMovementElevation "uniform(-90deg, 90deg)"
param **.hostRouters[*].mobility.rotationAxisAngle uniform(-10deg,10deg)
param **.hostRouters[*].mobility.faceForward false
param **.basicHosts[*].mobility.initialMovementHeading "uniform(0deg, 360deg)"
param **.basicHosts[*].mobility.initialMovementElevation "uniform(-90deg, 90deg)"
param **.basicHosts[*].mobility.rotationAxisAngle uniform(-10deg,10deg)
param **.basicHosts[*].mobility.faceForward false
param **.hostRouters[*].mobility.speed truncnormal(50mps,8mps)
param **.hostRouters[*].mobility.changeInterval "truncnormal(2s, 1s)"
param **.hostRouters[*].mobility.angleDelta "normal(-20deg, 20deg)"
param **.basicHosts[*].mobility.speed "truncnormal(20mps, 4mps)"
param **.basicHosts[*].mobility.changeInterval "truncnormal(3s, 1s)"
param **.basicHosts[*].mobility.angleDelta "normal(-10deg, 10deg)"
param **.basicHosts[*].mobility.initialZ 200m
param **.basicHosts[*].mobility.constraintAreaMinZ 100m
param **.basicHosts[*].mobility.constraintAreaMaxZ 300m
param **.hostRouters[0].mobility.initialX 700m
param **.hostRouters[0].mobility.initialY 1000m
param **.hostRouters[1].mobility.initialX 1500m
param **.hostRouters[1].mobility.initialY 500m
param **.hostRouters[2].mobility.initialX 1500m
param **.hostRouters[2].mobility.initialY 1200m
param **.hostRouters[3].mobility.initialX 300m
param **.hostRouters[3].mobility.initialY 600m
param **.hostRouters[4].mobility.initialX 1000m
param **.hostRouters[4].mobility.initialY 1000m
param **.basicHosts[*].mobility.constraintAreaMinX 200m
param **.basicHosts[*].mobility.constraintAreaMaxX 1300m
param **.basicHosts[*].mobility.constraintAreaMinY 200m
param **.basicHosts[*].mobility.constraintAreaMaxY 1300m
param **.hostRouters[0].mobility.getOthersPosition true
param **.hostRouters[0].mobility.basicNodeNum 30
param **.hostRouters[0].mobility.routerNodeNum 5

vector 0 UAVNetwork_Multi.basicHosts[0].wlan[0].radio radioMode:vector ETV
attr interpolationmode sample-hold
attr source radioModeChanged
attr title "Radio mode, vector"
vector 1 UAVNetwork_Multi.basicHosts[1].wlan[0].radio radioMode:vector ETV
attr interpolationmode sample-hold
attr source radioModeChanged
attr title "Radio mode, vector"
vector 2 UAVNetwork_Multi.basicHosts[2].wlan[0].radio radioMode:vector ETV
attr interpolationmode sample-hold
attr source radioModeChanged
attr title "Radio mode, vector"
vector 3 UAVNetwork_Multi.basicHosts[3].wlan[0].radio radioMode:vector ETV
attr interpolationmode sample-hold
attr source radioModeChanged
attr title "Radio mode, vector"
vector 4 UAVNetwork_Multi.basicHosts[4].wlan[0].radio radioMode:vector ETV
attr interpolationmode sample-hold
attr source radioModeChanged
attr title "Radio mode, vector"
vector 5 UAVNetwork_Multi.basicHosts[5].wlan[0].radio radioMode:vector ETV
attr interpolationmode sample-hold
attr source radioModeChanged
attr title "Radio mode, vector"
vector 6 UAVNetwork_Multi.basicHosts[6].wlan[0].radio radioMode:vector ETV
attr interpolationmode sample-hold
attr source radioModeChanged
attr title "Radio mode, vector"
vector 7 UAVNetwork_Multi.basicHosts[7].wlan[0].radio radioMode:vector ETV
attr interpolationmode sample-hold
attr source radioModeChanged
attr title "Radio mode, vector"
vector 8 UAVNetwork_Multi.basicHosts[8].wlan[0].radio radioMode:vector ETV
attr interpolationmode sample-hold
attr source radioModeChanged
attr title "Radio mode, vector"
vector 9 UAVNetwork_Multi.basicHosts[9].wlan[0].radio radioMode:vector ETV
attr interpolationmode sample-hold
attr source radioModeChanged
attr title "Radio mode, vector"
vector 10 UAVNetwork_Multi.basicHosts[10].wlan[0].radio radioMode:vector ETV
attr interpolationmode sample-hold
attr source radioModeChanged
attr title "Radio mode, vector"
vector 11 UAVNetwork_Multi.basicHosts[11].wlan[0].radio radioMode:vector ETV
attr interpolationmode sample-hold
attr source radioModeChanged
attr title "Radio mode, vector"
vector 12 UAVNetwork_Multi.basicHosts[12].wlan[0].radio radioMode:vector ETV
attr interpolationmode sample-hold
attr source radioModeChanged
attr title "Radio mode, vector"
vector 13 UAVNetwork_Multi.basicHosts[13].wlan[0].radio radioMode:vector ETV
attr interpolationmode sample-hold
attr source radioModeChanged
attr title "Radio mode, vector"
vector 14 UAVNetwork_Multi.basicHosts[14].wlan[0].radio radioMode:vector ETV
attr interpolationmode sample-hold
attr source radioModeChanged
attr title "Radio mode, vector"
vector 15 UAVNetwork_Multi.basicHosts[15].wlan[0].radio radioMode:vector ETV
attr interpolationmode sample-hold
attr source radioModeChanged
attr title "Radio mode, vector"
vector 16 UAVNetwork_Multi.basicHosts[16].wlan[0].radio radioMode:vector ETV
attr interpolationmode sample-hold
attr source radioModeChanged
attr title "Radio mode, vector"
vector 17 UAVNetwork_Multi.basicHosts[17].wlan[0].radio radioMode:vector ETV
attr interpolationmode sample-hold
attr source radioModeChanged
attr title "Radio mode, vector"
vector 18 UAVNetwork_Multi.basicHosts[18].wlan[0].radio radioMode:vector ETV
attr interpolationmode sample-hold
attr source radioModeChanged
attr title "Radio mode, vector"
vector 19 UAVNetwork_Multi.basicHosts[19].wlan[0].radio radioMode:vector ETV
attr interpolationmode sample-hold
attr source radioModeChanged
attr title "Radio mode, vector"
vector 20 UAVNetwork_Multi.basicHosts[20].wlan[0].radio radioMode:vector ETV
attr interpolationmode sample-hold
attr source radioModeChanged
attr title "Radio mode, vector"
vector 21 UAVNetwork_Multi.basicHosts[21].wlan[0].radio radioMode:vector ETV
attr interpolationmode sample-hold
attr source radioModeChanged
attr title "Radio mode, vector"
vector 22 UAVNetwork_Multi.basicHosts[22].wlan[0].radio radioMode:vector ETV
attr interpolationmode sample-hold
attr source radioModeChanged
attr title "Radio mode, vector"
vector 23 UAVNetwork_Multi.basicHosts[23].wlan[0].radio radioMode:vector ETV
attr interpolationmode sample-hold
attr source radioModeChanged
attr title "Radio mode, vector"
vector 24 UAVNetwork_Multi.basicHosts[24].wlan[0].radio radioMode:vector ETV
attr interpolationmode sample-hold
attr source radioModeChanged
attr title "Radio mode, vector"
vector 25 UAVNetwork_Multi.basicHosts[25].wlan[0].radio radioMode:vector ETV
attr interpolationmode sample-hold
attr source radioModeChanged
attr title "Radio mode, vector"
vector 26 UAVNetwork_Multi.basicHosts[26].wlan[0].radio radioMode:vector ETV
attr interpolationmode sample-hold
attr source radioModeChanged
attr title "Radio mode, vector"
vector 27 UAVNetwork_Multi.basicHosts[27].wlan[0].radio radioMode:vector ETV
attr interpolationmode sample-hold
attr source radioModeChanged
attr title "Radio mode, vector"
vector 28 UAVNetwork_Multi.basicHosts[28].wlan[0].radio radioMode:vector ETV
attr interpolationmode sample-hold
attr source radioModeChanged
attr title "Radio mode, vector"
vector 29 UAVNetwork_Multi.basicHosts[29].wlan[0].radio radioMode:vector ETV
attr interpolationmode sample-hold
attr source radioModeChanged
attr title "Radio mode, vector"
vector 30 UAVNetwork_Multi.hostRouters[0].wlan[0].radio radioMode:vector ETV
attr interpolationmode sample-hold
attr source radioModeChanged
attr title "Radio mode, vector"
vector 31 UAVNetwork_Multi.hostRouters[1].wlan[0].radio radioMode:vector ETV
attr interpolationmode sample-hold
attr source radioModeChanged
attr title "Radio mode, vector"
vector 32 UAVNetwork_Multi.hostRouters[2].wlan[0].radio radioMode:vector ETV
attr interpolationmode sample-hold
attr source radioModeChanged
attr title "Radio mode, vector"
vector 33 UAVNetwork_Multi.hostRouters[3].wlan[0].radio radioMode:vector ETV
attr interpolationmode sample-hold
attr source radioModeChanged
attr title "Radio mode, vector"
vector 34 UAVNetwork_Multi.hostRouters[4].wlan[0].radio radioMode:vector ETV
attr interpolationmode sample-hold
attr source radioModeChanged
attr title "Radio mode, vector"
vector 35 UAVNetwork_Multi.basicHosts[0].wlan[0].radio receptionState:vector ETV
attr interpolationmode sample-hold
attr source receptionStateChanged
attr title "Radio reception state, vector"
vector 36 UAVNetwork_Multi.basicHosts[1].wlan[0].radio receptionState:vector ETV
attr interpolationmode sample-hold
attr source receptionStateChanged
attr title "Radio reception state, vector"
vector 37 UAVNetwork_Multi.basicHosts[2].wlan[0].radio receptionState:vector ETV
attr interpolationmode sample-hold
attr source receptionStateChanged
attr title "Radio reception state, vector"
vector 38 UAVNetwork_Multi.basicHosts[3].wlan[0].radio receptionState:vector ETV
attr interpolationmode sample-hold
attr source receptionStateChanged
attr title "Radio reception state, vector"
vector 39 UAVNetwork_Multi.basicHosts[4].wlan[0].radio receptionState:vector ETV
attr interpolationmode sample-hold
attr source receptionStateChanged
attr title "Radio reception state, vector"
vector 40 UAVNetwork_Multi.basicHosts[5].wlan[0].radio receptionState:vector ETV
attr interpolationmode sample-hold
attr source receptionStateChanged
attr title "Radio reception state, vector"
vector 41 UAVNetwork_Multi.basicHosts[6].wlan[0].radio receptionState:vector ETV
attr interpolationmode sample-hold
attr source receptionStateChanged
attr title "Radio reception state, vector"
vector 42 UAVNetwork_Multi.basicHosts[7].wlan[0].radio receptionState:vector ETV
attr interpolationmode sample-hold
attr source receptionStateChanged
attr title "Radio reception state, vector"
vector 43 UAVNetwork_Multi.basicHosts[8].wlan[0].radio receptionState:vector ETV
attr interpolationmode sample-hold
attr source receptionStateChanged
attr title "Radio reception state, vector"
vector 44 UAVNetwork_Multi.basicHosts[9].wlan[0].radio receptionState:vector ETV
attr interpolationmode sample-hold
attr source receptionStateChanged
attr title "Radio reception state, vector"
vector 45 UAVNetwork_Multi.basicHosts[10].wlan[0].radio receptionState:vector ETV
attr interpolationmode sample-hold
attr source receptionStateChanged
attr title "Radio reception state, vector"
vector 46 UAVNetwork_Multi.basicHosts[11].wlan[0].radio receptionState:vector ETV
attr interpolationmode sample-hold
attr source receptionStateChanged
attr title "Radio reception state, vector"
vector 47 UAVNetwork_Multi.basicHosts[12].wlan[0].radio receptionState:vector ETV
attr interpolationmode sample-hold
attr source receptionStateChanged
attr title "Radio reception state, vector"
vector 48 UAVNetwork_Multi.basicHosts[13].wlan[0].radio receptionState:vector ETV
attr interpolationmode sample-hold
attr source receptionStateChanged
attr title "Radio reception state, vector"
vector 49 UAVNetwork_Multi.basicHosts[14].wlan[0].radio receptionState:vector ETV
attr interpolationmode sample-hold
attr source receptionStateChanged
attr title "Radio reception state, vector"
vector 50 UAVNetwork_Multi.basicHosts[15].wlan[0].radio receptionState:vector ETV
attr interpolationmode sample-hold
attr source receptionStateChanged
attr title "Radio reception state, vector"
vector 51 UAVNetwork_Multi.basicHosts[16].wlan[0].radio receptionState:vector ETV
attr interpolationmode sample-hold
attr source receptionStateChanged
attr title "Radio reception state, vector"
vector 52 UAVNetwork_Multi.basicHosts[17].wlan[0].radio receptionState:vector ETV
attr interpolationmode sample-hold
attr source receptionStateChanged
attr title "Radio reception state, vector"
vector 53 UAVNetwork_Multi.basicHosts[18].wlan[0].radio receptionState:vector ETV
attr interpolationmode sample-hold
attr source receptionStateChanged
attr title "Radio reception state, vector"
vector 54 UAVNetwork_Multi.basicHosts[19].wlan[0].radio receptionState:vector ETV
attr interpolationmode sample-hold
attr source receptionStateChanged
attr title "Radio reception state, vector"
vector 55 UAVNetwork_Multi.basicHosts[20].wlan[0].radio receptionState:vector ETV
attr interpolationmode sample-hold
attr source receptionStateChanged
attr title "Radio reception state, vector"
vector 56 UAVNetwork_Multi.basicHosts[21].wlan[0].radio receptionState:vector ETV
attr interpolationmode sample-hold
attr source receptionStateChanged
attr title "Radio reception state, vector"
vector 57 UAVNetwork_Multi.basicHosts[22].wlan[0].radio receptionState:vector ETV
attr interpolationmode sample-hold
attr source receptionStateChanged
attr title "Radio reception state, vector"
vector 58 UAVNetwork_Multi.basicHosts[23].wlan[0].radio receptionState:vector ETV
attr interpolationmode sample-hold
attr source receptionStateChanged
attr title "Radio reception state, vector"
vector 59 UAVNetwork_Multi.basicHosts[24].wlan[0].radio receptionState:vector ETV
attr interpolationmode sample-hold
attr source receptionStateChanged
attr title "Radio reception state, vector"
vector 60 UAVNetwork_Multi.basicHosts[25].wlan[0].radio receptionState:vector ETV
attr interpolationmode sample-hold
attr source receptionStateChanged
attr title "Radio reception state, vector"
vector 61 UAVNetwork_Multi.basicHosts[26].wlan[0].radio receptionState:vector ETV
attr interpolationmode sample-hold
attr source receptionStateChanged
attr title "Radio reception state, vector"
vector 62 UAVNetwork_Multi.basicHosts[27].wlan[0].radio receptionState:vector ETV
attr interpolationmode sample-hold
attr source receptionStateChanged
attr title "Radio reception state, vector"
vector 63 UAVNetwork_Multi.basicHosts[28].wlan[0].radio receptionState:vector ETV
attr interpolationmode sample-hold
attr source receptionStateChanged
attr title "Radio reception state, vector"
vector 64 UAVNetwork_Multi.basicHosts[29].wlan[0].radio receptionState:vector ETV
attr interpolationmode sample-hold
attr source receptionStateChanged
attr title "Radio reception state, vector"
vector 65 UAVNetwork_Multi.hostRouters[0].wlan[0].radio receptionState:vector ETV
attr interpolationmode sample-hold
attr source receptionStateChanged
attr title "Radio reception state, vector"
vector 66 UAVNetwork_Multi.hostRouters[1].wlan[0].radio receptionState:vector ETV
attr interpolationmode sample-hold
attr source receptionStateChanged
attr title "Radio reception state, vector"
vector 67 UAVNetwork_Multi.hostRouters[2].wlan[0].radio receptionState:vector ETV
attr interpolationmode sample-hold
attr source receptionStateChanged
attr title "Radio reception state, vector"
vector 68 UAVNetwork_Multi.hostRouters[3].wlan[0].radio receptionState:vector ETV
attr interpolationmode sample-hold
attr source receptionStateChanged
attr title "Radio reception state, vector"
vector 69 UAVNetwork_Multi.hostRouters[4].wlan[0].radio receptionState:vector ETV
attr interpolationmode sample-hold
attr source receptionStateChanged
attr title "Radio reception state, vector"
vector 70 UAVNetwork_Multi.hostRouters[3].wlan[0].radio transmissionState:vector ETV
attr interpolationmode sample-hold
attr source transmissionStateChanged
attr title "Radio transmission state, vector"
vector 71 UAVNetwork_Multi.hostRouters[2].wlan[0].radio transmissionState:vector ETV
attr interpolationmode sample-hold
attr source transmissionStateChanged
attr title "Radio transmission state, vector"
vector 72 UAVNetwork_Multi.basicHosts[3].wlan[0].mac packetDropNotAddressedToUs:vector(packetBytes) ETV
attr interpolationmode none
attr source packetDropReasonIsNotAddressedToUs(packetDropped)
attr title "packet drop: not addressed to us, vector(packetBytes)"
vector 73 UAVNetwork_Multi.basicHosts[6].wlan[0].mac packetDropNotAddressedToUs:vector(packetBytes) ETV
attr interpolationmode none
attr source packetDropReasonIsNotAddressedToUs(packetDropped)
attr title "packet drop: not addressed to us, vector(packetBytes)"
vector 74 UAVNetwork_Multi.basicHosts[2].wlan[0].mac packetDropNotAddressedToUs:vector(packetBytes) ETV
attr interpolationmode none
attr source packetDropReasonIsNotAddressedToUs(packetDropped)
attr title "packet drop: not addressed to us, vector(packetBytes)"
vector 75 UAVNetwork_Multi.basicHosts[7].wlan[0].mac packetDropNotAddressedToUs:vector(packetBytes) ETV
attr interpolationmode none
attr source packetDropReasonIsNotAddressedToUs(packetDropped)
attr title "packet drop: not addressed to us, vector(packetBytes)"
vector 76 UAVNetwork_Multi.basicHosts[21].wlan[0].mac packetDropNotAddressedToUs:vector(packetBytes) ETV
attr interpolationmode none
attr source packetDropReasonIsNotAddressedToUs(packetDropped)
attr title "packet drop: not addressed to us, vector(packetBytes)"
vector 77 UAVNetwork_Multi.basicHosts[15].wlan[0].mac packetDropNotAddressedToUs:vector(packetBytes) ETV
attr interpolationmode none
attr source packetDropReasonIsNotAddressedToUs(packetDropped)
attr title "packet drop: not addressed to us, vector(packetBytes)"
vector 78 UAVNetwork_Multi.basicHosts[1].wlan[0].mac packetDropNotAddressedToUs:vector(packetBytes) ETV
attr interpolationmode none
attr source packetDropReasonIsNotAddressedToUs(packetDropped)
attr title "packet drop: not addressed to us, vector(packetBytes)"
vector 79 UAVNetwork_Multi.basicHosts[25].wlan[0].mac packetDropNotAddressedToUs:vector(packetBytes) ETV
attr interpolationmode none
attr source packetDropReasonIsNotAddressedToUs(packetDropped)
attr title "packet drop: not addressed to us, vector(packetBytes)"
vector 80 UAVNetwork_Multi.basicHosts[22].wlan[0].mac packetDropNotAddressedToUs:vector(packetBytes) ETV
attr interpolationmode none
attr source packetDropReasonIsNotAddressedToUs(packetDropped)
attr title "packet drop: not addressed to us, vector(packetBytes)"
vector 81 UAVNetwork_Multi.basicHosts[24].wlan[0].mac packetDropNotAddressedToUs:vector(packetBytes) ETV
attr interpolationmode none
attr source packetDropReasonIsNotAddressedToUs(packetDropped)
attr title "packet drop: not addressed to us, vector(packetBytes)"
vector 82 UAVNetwork_Multi.basicHosts[14].wlan[0].mac packetDropNotAddressedToUs:vector(packetBytes) ETV
attr interpolationmode none
attr source packetDropReasonIsNotAddressedToUs(packetDropped)
attr title "packet drop: not addressed to us, vector(packetBytes)"
vector 83 UAVNetwork_Multi.basicHosts[5].wlan[0].mac packetDropIncorrectlyReceived:vector(packetBytes) ETV
attr interpolationmode none
attr source packetDropReasonIsIncorrectlyReceived(packetDropped)
attr title "packet drop: incorrectly received, vector(packetBytes)"
vector 84 UAVNetwork_Multi.basicHosts[19].wlan[0].mac packetDropNotAddressedToUs:vector(packetBytes) ETV
attr interpolationmode none
attr source packetDropReasonIsNotAddressedToUs(packetDropped)
attr title "packet drop: not addressed to us, vector(packetBytes)"
vector 85 UAVNetwork_Multi.basicHosts[8].wlan[0].mac packetDropIncorrectlyReceived:vector(packetBytes) ETV
attr interpolationmode none
attr source packetDropReasonIsIncorrectlyReceived(packetDropped)
attr title "packet drop: incorrectly received, vector(packetBytes)"
vector 86 UAVNetwork_Multi.basicHosts[11].wlan[0].mac packetDropNotAddressedToUs:vector(packetBytes) ETV
attr interpolationmode none
attr source packetDropReasonIsNotAddressedToUs(packetDropped)
attr title "packet drop: not addressed to us, vector(packetBytes)"
vector 87 UAVNetwork_Multi.basicHosts[13].wlan[0].mac packetDropNotAddressedToUs:vector(packetBytes) ETV
attr interpolationmode none
attr source packetDropReasonIsNotAddressedToUs(packetDropped)
attr title "packet drop: not addressed to us, vector(packetBytes)"
vector 88 UAVNetwork_Multi.hostRouters[0].wlan[0].mac packetDropIncorrectlyReceived:vector(packetBytes) ETV
attr interpolationmode none
attr source packetDropReasonIsIncorrectlyReceived(packetDropped)
attr title "packet drop: incorrectly received, vector(packetBytes)"
vector 89 UAVNetwork_Multi.basicHosts[26].wlan[0].mac packetDropNotAddressedToUs:vector(packetBytes) ETV
attr interpolationmode none
attr source packetDropReasonIsNotAddressedToUs(packetDropped)
attr title "packet drop: not addressed to us, vector(packetBytes)"
vector 90 UAVNetwork_Multi.basicHosts[9].wlan[0].mac packetDropNotAddressedToUs:vector(packetBytes) ETV
attr interpolationmode none
attr source packetDropReasonIsNotAddressedToUs(packetDropped)
attr title "packet drop: not addressed to us, vector(packetBytes)"
vector 91 UAVNetwork_Multi.basicHosts[4].wlan[0].mac packetDropNotAddressedToUs:vector(packetBytes) ETV
attr interpolationmode none
attr source packetDropReasonIsNotAddressedToUs(packetDropped)
attr title "packet drop: not addressed to us, vector(packetBytes)"
vector 92 UAVNetwork_Multi.hostRouters[4].wlan[0].mac packetDropNotAddressedToUs:vector(packetBytes) ETV
attr interpolationmode none
attr source packetDropReasonIsNotAddressedToUs(packetDropped)
attr title "packet drop: not addressed to us, vector(packetBytes)"
vector 93 UAVNetwork_Multi.basicHosts[0].wlan[0].mac packetDropIncorrectlyReceived:vector(packetBytes) ETV
attr interpolationmode none
attr source packetDropReasonIsIncorrectlyReceived(packetDropped)
attr title "packet drop: incorrectly received, vector(packetBytes)"
vector 94 UAVNetwork_Multi.basicHosts[12].wlan[0].mac packetDropNotAddressedToUs:vector(packetBytes) ETV
attr interpolationmode none
attr source packetDropReasonIsNotAddressedToUs(packetDropped)
attr title "packet drop: not addressed to us, vector(packetBytes)"
vector 95 UAVNetwork_Multi.basicHosts[20].wlan[0].mac packetDropNotAddressedToUs:vector(packetBytes) ETV
attr interpolationmode none
attr source packetDropReasonIsNotAddressedToUs(packetDropped)
attr title "packet drop: not addressed to us, vector(packetBytes)"
vector 96 UAVNetwork_Multi.basicHosts[10].wlan[0].mac packetDropIncorrectlyReceived:vector(packetBytes) ETV
attr interpolationmode none
attr source packetDropReasonIsIncorrectlyReceived(packetDropped)
attr title "packet drop: incorrectly received, vector(packetBytes)"
vector 97 UAVNetwork_Multi.basicHosts[16].wlan[0].mac packetDropNotAddressedToUs:vector(packetBytes) ETV
attr interpolationmode none
attr source packetDropReasonIsNotAddressedToUs(packetDropped)
attr title "packet drop: not addressed to us, vector(packetBytes)"
vector 98 UAVNetwork_Multi.hostRouters[1].wlan[0].mac packetDropNotAddressedToUs:vector(packetBytes) ETV
attr interpolationmode none
attr source packetDropReasonIsNotAddressedToUs(packetDropped)
attr title "packet drop: not addressed to us, vector(packetBytes)"
vector 99 UAVNetwork_Multi.hostRouters[1].wlan[0].radio transmissionState:vector ETV
attr interpolationmode sample-hold
attr source transmissionStateChanged
attr title "Radio transmission state, vector"
vector 100 UAVNetwork_Multi.basicHosts[17].wlan[0].mac packetDropNotAddressedToUs:vector(packetBytes) ETV
attr interpolationmode none
attr source packetDropReasonIsNotAddressedToUs(packetDropped)
attr title "packet drop: not addressed to us, vector(packetBytes)"
vector 101 UAVNetwork_Multi.basicHosts[10].wlan[0].mac packetDropNotAddressedToUs:vector(packetBytes) ETV
attr interpolationmode none
attr source packetDropReasonIsNotAddressedToUs(packetDropped)
attr title "packet drop: not addressed to us, vector(packetBytes)"
vector 102 UAVNetwork_Multi.hostRouters[2].wlan[0].mac packetDropIncorrectlyReceived:vector(packetBytes) ETV
attr interpolationmode none
attr source packetDropReasonIsIncorrectlyReceived(packetDropped)
attr title "packet drop: incorrectly received, vector(packetBytes)"
vector 103 UAVNetwork_Multi.hostRouters[4].wlan[0].mac packetDropIncorrectlyReceived:vector(packetBytes) ETV
attr interpolationmode none
attr source packetDropReasonIsIncorrectlyReceived(packetDropped)
attr title "packet drop: incorrectly received, vector(packetBytes)"
vector 104 UAVNetwork_Multi.basicHosts[28].wlan[0].mac packetDropIncorrectlyReceived:vector(packetBytes) ETV
attr interpolationmode none
attr source packetDropReasonIsIncorrectlyReceived(packetDropped)
attr title "packet drop: incorrectly received, vector(packetBytes)"
vector 105 UAVNetwork_Multi.basicHosts[26].wlan[0].mac packetDropIncorrectlyReceived:vector(packetBytes) ETV
attr interpolationmode none
attr source packetDropReasonIsIncorrectlyReceived(packetDropped)
attr title "packet drop: incorrectly received, vector(packetBytes)"
vector 106 UAVNetwork_Multi.basicHosts[9].wlan[0].mac packetDropIncorrectlyReceived:vector(packetBytes) ETV
attr interpolationmode none
attr source packetDropReasonIsIncorrectlyReceived(packetDropped)
attr title "packet drop: incorrectly received, vector(packetBytes)"
vector 107 UAVNetwork_Multi.basicHosts[4].wlan[0].mac packetDropIncorrectlyReceived:vector(packetBytes) ETV
attr interpolationmode none
attr source packetDropReasonIsIncorrectlyReceived(packetDropped)
attr title "packet drop: incorrectly received, vector(packetBytes)"
vector 108 UAVNetwork_Multi.hostRouters[4].wlan[0].radio transmissionState:vector ETV
attr interpolationmode sample-hold
attr source transmissionStateChanged
attr title "Radio transmission state, vector"
vector 109 UAVNetwork_Multi.basicHosts[18].wlan[0].mac packetDropNotAddressedToUs:vector(packetBytes) ETV
attr interpolationmode none
attr source packetDropReasonIsNotAddressedToUs(packetDropped)
attr title "packet drop: not addressed to us, vector(packetBytes)"
vector 110 UAVNetwork_Multi.basicHosts[28].wlan[0].mac packetDropNotAddressedToUs:vector(packetBytes) ETV
attr interpolationmode none
attr source packetDropReasonIsNotAddressedToUs(packetDropped)
attr title "packet drop: not addressed to us, vector(packetBytes)"
vector 111 UAVNetwork_Multi.hostRouters[0].wlan[0].mac packetDropNotAddressedToUs:vector(packetBytes) ETV
attr interpolationmode none
attr source packetDropReasonIsNotAddressedToUs(packetDropped)
attr title "packet drop: not addressed to us, vector(packetBytes)"
vector 112 UAVNetwork_Multi.basicHosts[27].wlan[0].mac packetDropNotAddressedToUs:vector(packetBytes) ETV
attr interpolationmode none
attr source packetDropReasonIsNotAddressedToUs(packetDropped)
attr title "packet drop: not addressed to us, vector(packetBytes)"
vector 113 UAVNetwork_Multi.basicHosts[8].wlan[0].mac packetDropNotAddressedToUs:vector(packetBytes) ETV
attr interpolationmode none
attr source packetDropReasonIsNotAddressedToUs(packetDropped)
attr title "packet drop: not addressed to us, vector(packetBytes)"
vector 114 UAVNetwork_Multi.basicHosts[0].wlan[0].mac packetDropNotAddressedToUs:vector(packetBytes) ETV
attr interpolationmode none
attr source packetDropReasonIsNotAddressedToUs(packetDropped)
attr title "packet drop: not addressed to us, vector(packetBytes)"
vector 115 UAVNetwork_Multi.hostRouters[2].wlan[0].mac packetDropNotAddressedToUs:vector(packetBytes) ETV
attr interpolationmode none
attr source packetDropReasonIsNotAddressedToUs(packetDropped)
attr title "packet drop: not addressed to us, vector(packetBytes)"
vector 116 UAVNetwork_Multi.basicHosts[29].wlan[0].mac packetDropNotAddressedToUs:vector(packetBytes) ETV
attr interpolationmode none
attr source packetDropReasonIsNotAddressedToUs(packetDropped)
attr title "packet drop: not addressed to us, vector(packetBytes)"
vector 117 UAVNetwork_Multi.hostRouters[3].wlan[0].mac packetDropNotAddressedToUs:vector(packetBytes) ETV
attr interpolationmode none
attr source packetDropReasonIsNotAddressedToUs(packetDropped)
attr title "packet drop: not addressed to us, vector(packetBytes)"
vector 118 UAVNetwork_Multi.hostRouters[0].wlan[0].radio transmissionState:vector ETV
attr interpolationmode sample-hold
attr source transmissionStateChanged
attr title "Radio transmission state, vector"
vector 119 UAVNetwork_Multi.basicHosts[17].wlan[0].mac packetDropIncorrectlyReceived:vector(packetBytes) ETV
attr interpolationmode none
attr source packetDropReasonIsIncorrectlyReceived(packetDropped)
attr title "packet drop: incorrectly received, vector(packetBytes)"
vector 120 UAVNetwork_Multi.basicHosts[20].wlan[0].mac packetDropIncorrectlyReceived:vector(packetBytes) ETV
attr interpolationmode none
attr source packetDropReasonIsIncorrectlyReceived(packetDropped)
attr title "packet drop: incorrectly received, vector(packetBytes)"
vector 121 UAVNetwork_Multi.basicHosts[16].wlan[0].mac packetDropIncorrectlyReceived:vector(packetBytes) ETV
attr interpolationmode none
attr source packetDropReasonIsIncorrectlyReceived(packetDropped)
attr title "packet drop: incorrectly received, vector(packetBytes)"
vector 122 UAVNetwork_Multi.hostRouters[1].wlan[0].mac packetDropIncorrectlyReceived:vector(packetBytes) ETV
attr interpolationmode none
attr source packetDropReasonIsIncorrectlyReceived(packetDropped)
attr title "packet drop: incorrectly received, vector(packetBytes)"
vector 123 UAVNetwork_Multi.basicHosts[29].wlan[0].mac packetDropIncorrectlyReceived:vector(packetBytes) ETV
attr interpolationmode none
attr source packetDropReasonIsIncorrectlyReceived(packetDropped)
attr title "packet drop: incorrectly received, vector(packetBytes)"
vector 124 UAVNetwork_Multi.basicHosts[21].wlan[0].mac packetDropIncorrectlyReceived:vector(packetBytes) ETV
attr interpolationmode none
attr source packetDropReasonIsIncorrectlyReceived(packetDropped)
attr title "packet drop: incorrectly received, vector(packetBytes)"
vector 125 UAVNetwork_Multi.hostRouters[3].wlan[0].mac packetDropIncorrectlyReceived:vector(packetBytes) ETV
attr interpolationmode none
attr source packetDropReasonIsIncorrectlyReceived(packetDropped)
attr title "packet drop: incorrectly received, vector(packetBytes)"
vector 126 UAVNetwork_Multi.basicHosts[5].wlan[0].mac packetDropNotAddressedToUs:vector(packetBytes) ETV
attr interpolationmode none
attr source packetDropReasonIsNotAddressedToUs(packetDropped)
attr title "packet drop: not addressed to us, vector(packetBytes)"
vector 127 UAVNetwork_Multi.hostRouters[3].wlan[0].mac packetDropRetryLimitReached:vector(packetBytes) ETV
attr interpolationmode none
attr source packetDropReasonIsRetryLimitReached(packetDropped)
attr title "packet drop: retry limit reached, vector(packetBytes)"
vector 128 UAVNetwork_Multi.hostRouters[1].wlan[0].mac packetDropRetryLimitReached:vector(packetBytes) ETV
attr interpolationmode none
attr source packetDropReasonIsRetryLimitReached(packetDropped)
attr title "packet drop: retry limit reached, vector(packetBytes)"
vector 129 UAVNetwork_Multi.hostRouters[2].wlan[0].mac packetDropRetryLimitReached:vector(packetBytes) ETV
attr interpolationmode none
attr source packetDropReasonIsRetryLimitReached(packetDropped)
attr title "packet drop: retry limit reached, vector(packetBytes)"
vector 130 UAVNetwork_Multi.hostRouters[4].wlan[0].mac packetDropRetryLimitReached:vector(packetBytes) ETV
attr interpolationmode none
attr source packetDropReasonIsRetryLimitReached(packetDropped)
attr title "packet drop: retry limit reached, vector(packetBytes)"
vector 131 UAVNetwork_Multi.hostRouters[0].wlan[0].mac packetDropRetryLimitReached:vector(packetBytes) ETV
attr interpolationmode none
attr source packetDropReasonIsRetryLimitReached(packetDropped)
attr title "packet drop: retry limit reached, vector(packetBytes)"
vector 132 UAVNetwork_Multi.basicHosts[15].app[0] pingTxSeq:vector ETV
attr interpolationmode none
attr title "ping tx seq, vector"
vector 133 UAVNetwork_Multi.basicHosts[15].wlan[0].radio transmissionState:vector ETV
attr interpolationmode sample-hold
attr source transmissionStateChanged
attr title "Radio transmission state, vector"
vector 134 UAVNetwork_Multi.basicHosts[21].wlan[0].radio transmissionState:vector ETV
attr interpolationmode sample-hold
attr source transmissionStateChanged
attr title "Radio transmission state, vector"
vector 135 UAVNetwork_Multi.basicHosts[3].wlan[0].radio transmissionState:vector ETV
attr interpolationmode sample-hold
attr source transmissionStateChanged
attr title "Radio transmission state, vector"
vector 136 UAVNetwork_Multi.basicHosts[0].wlan[0].radio transmissionState:vector ETV
attr interpolationmode sample-hold
attr source transmissionStateChanged
attr title "Radio transmission state, vector"
vector 137 UAVNetwork_Multi.basicHosts[25].wlan[0].mac packetDropIncorrectlyReceived:vector(packetBytes) ETV
attr interpolationmode none
attr source packetDropReasonIsIncorrectlyReceived(packetDropped)
attr title "packet drop: incorrectly received, vector(packetBytes)"
vector 138 UAVNetwork_Multi.basicHosts[13].wlan[0].mac packetDropIncorrectlyReceived:vector(packetBytes) ETV
attr interpolationmode none
attr source packetDropReasonIsIncorrectlyReceived(packetDropped)
attr title "packet drop: incorrectly received, vector(packetBytes)"
vector 139 UAVNetwork_Multi.basicHosts[11].wlan[0].mac packetDropIncorrectlyReceived:vector(packetBytes) ETV
attr interpolationmode none
attr source packetDropReasonIsIncorrectlyReceived(packetDropped)
attr title "packet drop: incorrectly received, vector(packetBytes)"
vector 140 UAVNetwork_Multi.basicHosts[14].wlan[0].mac packetDropIncorrectlyReceived:vector(packetBytes) ETV
attr interpolationmode none
attr source packetDropReasonIsIncorrectlyReceived(packetDropped)
attr title "packet drop: incorrectly received, vector(packetBytes)"
vector 141 UAVNetwork_Multi.basicHosts[27].wlan[0].mac packetDropIncorrectlyReceived:vector(packetBytes) ETV
attr interpolationmode none
attr source packetDropReasonIsIncorrectlyReceived(packetDropped)
attr title "packet drop: incorrectly received, vector(packetBytes)"
vector 142 UAVNetwork_Multi.basicHosts[2].wlan[0].radio transmissionState:vector ETV
attr interpolationmode sample-hold
attr source transmissionStateChanged
attr title "Radio transmission state, vector"
vector 143 UAVNetwork_Multi.basicHosts[18].wlan[0].mac packetDropIncorrectlyReceived:vector(packetBytes) ETV
attr interpolationmode none
attr source packetDropReasonIsIncorrectlyReceived(packetDropped)
attr title "packet drop: incorrectly received, vector(packetBytes)"
vector 144 UAVNetwork_Multi.basicHosts[3].wlan[0].mac packetDropIncorrectlyReceived:vector(packetBytes) ETV
attr interpolationmode none
attr source packetDropReasonIsIncorrectlyReceived(packetDropped)
attr title "packet drop: incorrectly received, vector(packetBytes)"
vector 145 UAVNetwork_Multi.basicHosts[19].wlan[0].mac packetDropIncorrectlyReceived:vector(packetBytes) ETV
attr interpolationmode none
attr source packetDropReasonIsIncorrectlyReceived(packetDropped)
attr title "packet drop: incorrectly received, vector(packetBytes)"
vector 146 UAVNetwork_Multi.basicHosts[7].wlan[0].mac packetDropIncorrectlyReceived:vector(packetBytes) ETV
attr interpolationmode none
attr source packetDropReasonIsIncorrectlyReceived(packetDropped)
attr title "packet drop: incorrectly received, vector(packetBytes)"
vector 147 UAVNetwork_Multi.basicHosts[15].wlan[0].mac packetDropIncorrectlyReceived:vector(packetBytes) ETV
attr interpolationmode none
attr source packetDropReasonIsIncorrectlyReceived(packetDropped)
attr title "packet drop: incorrectly received, vector(packetBytes)"
vector 148 UAVNetwork_Multi.basicHosts[7].wlan[0].radio transmissionState:vector ETV
attr interpolationmode sample-hold
attr source transmissionStateChanged
attr title "Radio transmission state, vector"
vector 149 UAVNetwork_Multi.basicHosts[6].wlan[0].radio transmissionState:vector ETV
attr interpolationmode sample-hold
attr source transmissionStateChanged
attr title "Radio transmission state, vector"
vector 150 UAVNetwork_Multi.basicHosts[26].wlan[0].radio transmissionState:vector ETV
attr interpolationmode sample-hold
attr source transmissionStateChanged
attr title "Radio transmission state, vector"
vector 151 UAVNetwork_Multi.basicHosts[9].wlan[0].radio transmissionState:vector ETV
attr interpolationmode sample-hold
attr source transmissionStateChanged
attr title "Radio transmission state, vector"
vector 152 UAVNetwork_Multi.basicHosts[8].wlan[0].radio transmissionState:vector ETV
attr interpolationmode sample-hold
attr source transmissionStateChanged
attr title "Radio transmission state, vector"
vector 153 UAVNetwork_Multi.basicHosts[13].wlan[0].radio transmissionState:vector ETV
attr interpolationmode sample-hold
attr source transmissionStateChanged
attr title "Radio transmission state, vector"
vector 154 UAVNetwork_Multi.basicHosts[28].app[0] pingTxSeq:vector ETV
attr interpolationmode none
attr title "ping tx seq, vector"
vector 155 UAVNetwork_Multi.basicHosts[28].wlan[0].radio transmissionState:vector ETV
attr interpolationmode sample-hold
attr source transmissionStateChanged
attr title "Radio transmission state, vector"
vector 156 UAVNetwork_Multi.basicHosts[20].wlan[0].radio transmissionState:vector ETV
attr interpolationmode sample-hold
attr source transmissionStateChanged
attr title "Radio transmission state, vector"
vector 157 UAVNetwork_Multi.basicHosts[12].wlan[0].mac packetDropIncorrectlyReceived:vector(packetBytes) ETV
attr interpolationmode none
attr source packetDropReasonIsIncorrectlyReceived(packetDropped)
attr title "packet drop: incorrectly received, vector(packetBytes)"
vector 158 UAVNetwork_Multi.basicHosts[23].wlan[0].mac packetDropIncorrectlyReceived:vector(packetBytes) ETV
attr interpolationmode none
attr source packetDropReasonIsIncorrectlyReceived(packetDropped)
attr title "packet drop: incorrectly received, vector(packetBytes)"
vector 159 UAVNetwork_Multi.basicHosts[12].wlan[0].radio transmissionState:vector ETV
attr interpolationmode sample-hold
attr source transmissionStateChanged
attr title "Radio transmission state, vector"
vector 160 UAVNetwork_Multi.basicHosts[10].wlan[0].radio transmissionState:vector ETV
attr interpolationmode sample-hold
attr source transmissionStateChanged
attr title "Radio transmission state, vector"
vector 161 UAVNetwork_Multi.basicHosts[29].wlan[0].radio transmissionState:vector ETV
attr interpolationmode sample-hold
attr source transmissionStateChanged
attr title "Radio transmission state, vector"
vector 162 UAVNetwork_Multi.basicHosts[18].wlan[0].radio transmissionState:vector ETV
attr interpolationmode sample-hold
attr source transmissionStateChanged
attr title "Radio transmission state, vector"
vector 163 UAVNetwork_Multi.basicHosts[2].wlan[0].mac packetDropIncorrectlyReceived:vector(packetBytes) ETV
attr interpolationmode none
attr source packetDropReasonIsIncorrectlyReceived(packetDropped)
attr title "packet drop: incorrectly received, vector(packetBytes)"
vector 164 UAVNetwork_Multi.basicHosts[5].wlan[0].radio transmissionState:vector ETV
attr interpolationmode sample-hold
attr source transmissionStateChanged
attr title "Radio transmission state, vector"
vector 165 UAVNetwork_Multi.basicHosts[4].wlan[0].radio transmissionState:vector ETV
attr interpolationmode sample-hold
attr source transmissionStateChanged
attr title "Radio transmission state, vector"
vector 166 UAVNetwork_Multi.basicHosts[22].wlan[0].mac packetDropIncorrectlyReceived:vector(packetBytes) ETV
attr interpolationmode none
attr source packetDropReasonIsIncorrectlyReceived(packetDropped)
attr title "packet drop: incorrectly received, vector(packetBytes)"
vector 167 UAVNetwork_Multi.basicHosts[1].wlan[0].mac packetDropIncorrectlyReceived:vector(packetBytes) ETV
attr interpolationmode none
attr source packetDropReasonIsIncorrectlyReceived(packetDropped)
attr title "packet drop: incorrectly received, vector(packetBytes)"
vector 168 UAVNetwork_Multi.basicHosts[16].wlan[0].radio transmissionState:vector ETV
attr interpolationmode sample-hold
attr source transmissionStateChanged
attr title "Radio transmission state, vector"
vector 169 UAVNetwork_Multi.basicHosts[17].wlan[0].radio transmissionState:vector ETV
attr interpolationmode sample-hold
attr source transmissionStateChanged
attr title "Radio transmission state, vector"
vector 170 UAVNetwork_Multi.basicHosts[24].wlan[0].mac packetDropIncorrectlyReceived:vector(packetBytes) ETV
attr interpolationmode none
attr source packetDropReasonIsIncorrectlyReceived(packetDropped)
attr title "packet drop: incorrectly received, vector(packetBytes)"
vector 171 UAVNetwork_Multi.basicHosts[27].wlan[0].radio transmissionState:vector ETV
attr interpolationmode sample-hold
attr source transmissionStateChanged
attr title "Radio transmission state, vector"
vector 172 UAVNetwork_Multi.basicHosts[0].wlan[0].mac packetDropRetryLimitReached:vector(packetBytes) ETV
attr interpolationmode none
attr source packetDropReasonIsRetryLimitReached(packetDropped)
attr title "packet drop: retry limit reached, vector(packetBytes)"
vector 173 UAVNetwork_Multi.basicHosts[28].app[0] pingRxSeq:vector ETV
attr interpolationmode none
attr title "ping rx seq, vector"
vector 174 UAVNetwork_Multi.basicHosts[28].app[0] rtt:vector ETV
attr interpolationmode none
attr title "ping round-trip time, vector"
attr unit s
vector 175 UAVNetwork_Multi.basicHosts[17].app[0] pingTxSeq:vector ETV
attr interpolationmode none
attr title "ping tx seq, vector"
vector 176 UAVNetwork_Multi.basicHosts[23].wlan[0].mac packetDropNotAddressedToUs:vector(packetBytes) ETV
attr interpolationmode none
attr source packetDropReasonIsNotAddressedToUs(packetDropped)
attr title "packet drop: not addressed to us, vector(packetBytes)"
vector 177 UAVNetwork_Multi.basicHosts[28].ipv4.ip packetDropForwardingDisabled:vector(packetBytes) ETV
attr interpolationmode none
attr source packetDropReasonIsForwardingDisabled(packetDropped)
attr title "packet drop: forwarding disabled, vector(packetBytes)"
vector 178 UAVNetwork_Multi.basicHosts[23].wlan[0].radio transmissionState:vector ETV
attr interpolationmode sample-hold
attr source transmissionStateChanged
attr title "Radio transmission state, vector"
vector 179 UAVNetwork_Multi.basicHosts[24].wlan[0].radio transmissionState:vector ETV
attr interpolationmode sample-hold
attr source transmissionStateChanged
attr title "Radio transmission state, vector"
vector 180 UAVNetwork_Multi.basicHosts[13].app[0] pingTxSeq:vector ETV
attr interpolationmode none
attr title "ping tx seq, vector"
vector 181 UAVNetwork_Multi.basicHosts[13].app[0] pingRxSeq:vector ETV
attr interpolationmode none
attr title "ping rx seq, vector"
vector 182 UAVNetwork_Multi.basicHosts[13].app[0] rtt:vector ETV
attr interpolationmode none
attr title "ping round-trip time, vector"
attr unit s
vector 183 UAVNetwork_Multi.basicHosts[13].app[0] numOutOfOrderArrivals:vector ETV
attr interpolationmode none
attr title "ping out-of-order arrivals, vector"
vector 184 UAVNetwork_Multi.basicHosts[13].app[0] numLost:vector ETV
attr interpolationmode none
attr title "pings lost, vector"
vector 185 UAVNetwork_Multi.basicHosts[29].app[0] pingTxSeq:vector ETV
attr interpolationmode none
attr title "ping tx seq, vector"
vector 186 UAVNetwork_Multi.basicHosts[11].wlan[0].radio transmissionState:vector ETV
attr interpolationmode sample-hold
attr source transmissionStateChanged
attr title "Radio transmission state, vector"
vector 187 UAVNetwork_Multi.basicHosts[6].wlan[0].mac packetDropIncorrectlyReceived:vector(packetBytes) ETV
attr interpolationmode none
attr source packetDropReasonIsIncorrectlyReceived(packetDropped)
attr title "packet drop: incorrectly received, vector(packetBytes)"
vector 188 UAVNetwork_Multi.basicHosts[17].ipv4.ip packetDropForwardingDisabled:vector(packetBytes) ETV
attr interpolationmode none
attr source packetDropReasonIsForwardingDisabled(packetDropped)
attr title "packet drop: forwarding disabled, vector(packetBytes)"
vector 189 UAVNetwork_Multi.basicHosts[14].wlan[0].radio transmissionState:vector ETV
attr interpolationmode sample-hold
attr source transmissionStateChanged
attr title "Radio transmission state, vector"
vector 190 UAVNetwork_Multi.basicHosts[28].wlan[0].mac packetDropRetryLimitReached:vector(packetBytes) ETV
attr interpolationmode none
attr source packetDropReasonIsRetryLimitReached(packetDropped)
attr title "packet drop: retry limit reached, vector(packetBytes)"
vector 191 UAVNetwork_Multi.basicHosts[18].app[0] pingTxSeq:vector ETV
attr interpolationmode none
attr title "ping tx seq, vector"
vector 192 UAVNetwork_Multi.basicHosts[22].wlan[0].radio transmissionState:vector ETV
attr interpolationmode sample-hold
attr source transmissionStateChanged
attr title "Radio transmission state, vector"
vector 193 UAVNetwork_Multi.basicHosts[11].app[0] pingTxSeq:vector ETV
attr interpolationmode none
attr title "ping tx seq, vector"
vector 194 UAVNetwork_Multi.basicHosts[1].wlan[0].radio transmissionState:vector ETV
attr interpolationmode sample-hold
attr source transmissionStateChanged
attr title "Radio transmission state, vector"
vector 195 UAVNetwork_Multi.basicHosts[25].wlan[0].radio transmissionState:vector ETV
attr interpolationmode sample-hold
attr source transmissionStateChanged
attr title "Radio transmission state, vector"
vector 196 UAVNetwork_Multi.basicHosts[19].wlan[0].radio transmissionState:vector ETV
attr interpolationmode sample-hold
attr source transmissionStateChanged
attr title "Radio transmission state, vector"
vector 197 UAVNetwork_Multi.basicHosts[25].app[0] pingTxSeq:vector ETV
attr interpolationmode none
attr title "ping tx seq, vector"
vector 198 UAVNetwork_Multi.basicHosts[27].ipv4.ip packetDropForwardingDisabled:vector(packetBytes) ETV
attr interpolationmode none
attr source packetDropReasonIsForwardingDisabled(packetDropped)
attr title "packet drop: forwarding disabled, vector(packetBytes)"
vector 199 UAVNetwork_Multi.hostRouters[0].ipv4.ip packetDropHopLimitReached:vector(packetBytes) ETV
attr interpolationmode none
attr source packetDropReasonIsHopLimitReached(packetDropped)
attr title "packet drop: hop limit reached, vector(packetBytes)"
vector 200 UAVNetwork_Multi.basicHosts[8].app[0] pingTxSeq:vector ETV
attr interpolationmode none
attr title "ping tx seq, vector"
vector 201 UAVNetwork_Multi.basicHosts[6].ipv4.ip packetDropForwardingDisabled:vector(packetBytes) ETV
attr interpolationmode none
attr source packetDropReasonIsForwardingDisabled(packetDropped)
attr title "packet drop: forwarding disabled, vector(packetBytes)"
vector 202 UAVNetwork_Multi.basicHosts[29].ipv4.ip packetDropForwardingDisabled:vector(packetBytes) ETV
attr interpolationmode none
attr source packetDropReasonIsForwardingDisabled(packetDropped)
attr title "packet drop: forwarding disabled, vector(packetBytes)"
vector 203 UAVNetwork_Multi.basicHosts[24].ipv4.ip packetDropForwardingDisabled:vector(packetBytes) ETV
attr interpolationmode none
attr source packetDropReasonIsForwardingDisabled(packetDropped)
attr title "packet drop: forwarding disabled, vector(packetBytes)"
vector 204 UAVNetwork_Multi.basicHosts[12].app[0] pingTxSeq:vector ETV
attr interpolationmode none
attr title "ping tx seq, vector"
vector 205 UAVNetwork_Multi.basicHosts[17].wlan[0].mac packetDropRetryLimitReached:vector(packetBytes) ETV
attr interpolationmode none
attr source packetDropReasonIsRetryLimitReached(packetDropped)
attr title "packet drop: retry limit reached, vector(packetBytes)"
vector 206 UAVNetwork_Multi.basicHosts[19].app[0] pingTxSeq:vector ETV
attr interpolationmode none
attr title "ping tx seq, vector"
vector 207 UAVNetwork_Multi.basicHosts[23].app[0] pingTxSeq:vector ETV
attr interpolationmode none
attr title "ping tx seq, vector"
vector 208 UAVNetwork_Multi.basicHosts[11].ipv4.ip packetDropForwardingDisabled:vector(packetBytes) ETV
attr interpolationmode none
attr source packetDropReasonIsForwardingDisabled(packetDropped)
attr title "packet drop: forwarding disabled, vector(packetBytes)"
vector 209 UAVNetwork_Multi.basicHosts[22].app[0] pingTxSeq:vector ETV
attr interpolationmode none
attr title "ping tx seq, vector"
vector 210 UAVNetwork_Multi.basicHosts[6].app[0] pingTxSeq:vector ETV
attr interpolationmode none
attr title "ping tx seq, vector"
vector 211 UAVNetwork_Multi.basicHosts[15].ipv4.ip packetDropForwardingDisabled:vector(packetBytes) ETV
attr interpolationmode none
attr source packetDropReasonIsForwardingDisabled(packetDropped)
attr title "packet drop: forwarding disabled, vector(packetBytes)"
vector 212 UAVNetwork_Multi.basicHosts[0].app[0] pingTxSeq:vector ETV
attr interpolationmode none
attr title "ping tx seq, vector"
vector 213 UAVNetwork_Multi.basicHosts[0].lo[0].lo rcvdPkFromHl:vector(packetBytes) ETV
attr interpolationmode none
attr source packetReceivedFromUpper
attr title "packets received from higher layer, vector(packetBytes)"
vector 214 UAVNetwork_Multi.basicHosts[0].lo[0].lo passedUpPk:vector(packetBytes) ETV
attr interpolationmode none
attr source packetSentToUpper
attr title "packets passed to higher layer, vector(packetBytes)"
vector 215 UAVNetwork_Multi.basicHosts[0].app[0] pingRxSeq:vector ETV
attr interpolationmode none
attr title "ping rx seq, vector"
vector 216 UAVNetwork_Multi.basicHosts[24].app[0] pingTxSeq:vector ETV
attr interpolationmode none
attr title "ping tx seq, vector"
vector 217 UAVNetwork_Multi.basicHosts[1].app[0] pingTxSeq:vector ETV
attr interpolationmode none
attr title "ping tx seq, vector"
vector 218 UAVNetwork_Multi.basicHosts[4].app[0] pingTxSeq:vector ETV
attr interpolationmode none
attr title "ping tx seq, vector"
vector 219 UAVNetwork_Multi.basicHosts[22].ipv4.ip packetDropForwardingDisabled:vector(packetBytes) ETV
attr interpolationmode none
attr source packetDropReasonIsForwardingDisabled(packetDropped)
attr title "packet drop: forwarding disabled, vector(packetBytes)"
vector 220 UAVNetwork_Multi.basicHosts[4].app[0] pingRxSeq:vector ETV
attr interpolationmode none
attr title "ping rx seq, vector"
vector 221 UAVNetwork_Multi.basicHosts[4].app[0] rtt:vector ETV
attr interpolationmode none
attr title "ping round-trip time, vector"
attr unit s
vector 222 UAVNetwork_Multi.basicHosts[9].app[0] pingTxSeq:vector ETV
attr interpolationmode none
attr title "ping tx seq, vector"
vector 223 UAVNetwork_Multi.basicHosts[26].ipv4.ip packetDropForwardingDisabled:vector(packetBytes) ETV
attr interpolationmode none
attr source packetDropReasonIsForwardingDisabled(packetDropped)
attr title "packet drop: forwarding disabled, vector(packetBytes)"
vector 224 UAVNetwork_Multi.basicHosts[10].app[0] pingTxSeq:vector ETV
attr interpolationmode none
attr title "ping tx seq, vector"
vector 225 UAVNetwork_Multi.basicHosts[16].ipv4.ip packetDropForwardingDisabled:vector(packetBytes) ETV
attr interpolationmode none
attr source packetDropReasonIsForwardingDisabled(packetDropped)
attr title "packet drop: forwarding disabled, vector(packetBytes)"
vector 226 UAVNetwork_Multi.basicHosts[2].app[0] pingTxSeq:vector ETV
attr interpolationmode none
attr title "ping tx seq, vector"
vector 227 UAVNetwork_Multi.basicHosts[2].wlan[0].mac packetDropRetryLimitReached:vector(packetBytes) ETV
attr interpolationmode none
attr source packetDropReasonIsRetryLimitReached(packetDropped)
attr title "packet drop: retry limit reached, vector(packetBytes)"
vector 228 UAVNetwork_Multi.basicHosts[20].app[0] pingTxSeq:vector ETV
attr interpolationmode none
attr title "ping tx seq, vector"
vector 229 UAVNetwork_Multi.basicHosts[18].ipv4.ip packetDropForwardingDisabled:vector(packetBytes) ETV
attr interpolationmode none
attr source packetDropReasonIsForwardingDisabled(packetDropped)
attr title "packet drop: forwarding disabled, vector(packetBytes)"
vector 230 UAVNetwork_Multi.basicHosts[21].app[0] pingTxSeq:vector ETV
attr interpolationmode none
attr title "ping tx seq, vector"
vector 231 UAVNetwork_Multi.basicHosts[27].app[0] pingTxSeq:vector ETV
attr interpolationmode none
attr title "ping tx seq, vector"
vector 232 UAVNetwork_Multi.basicHosts[3].app[0] pingTxSeq:vector ETV
attr interpolationmode none
attr title "ping tx seq, vector"
vector 233 UAVNetwork_Multi.basicHosts[7].app[0] pingTxSeq:vector ETV
attr interpolationmode none
attr title "ping tx seq, vector"
vector 234 UAVNetwork_Multi.basicHosts[5].app[0] pingTxSeq:vector ETV
attr interpolationmode none
attr title "ping tx seq, vector"
vector 235 UAVNetwork_Multi.basicHosts[27].app[0] pingRxSeq:vector ETV
attr interpolationmode none
attr title "ping rx seq, vector"
vector 236 UAVNetwork_Multi.basicHosts[27].app[0] rtt:vector ETV
attr interpolationmode none
attr title "ping round-trip time, vector"
attr unit s
vector 237 UAVNetwork_Multi.basicHosts[14].app[0] pingTxSeq:vector ETV
attr interpolationmode none
attr title "ping tx seq, vector"
vector 238 UAVNetwork_Multi.basicHosts[7].wlan[0].mac packetDropRetryLimitReached:vector(packetBytes) ETV
attr interpolationmode none
attr source packetDropReasonIsRetryLimitReached(packetDropped)
attr title "packet drop: retry limit reached, vector(packetBytes)"
vector 239 UAVNetwork_Multi.basicHosts[3].wlan[0].mac packetDropRetryLimitReached:vector(packetBytes) ETV
attr interpolationmode none
attr source packetDropReasonIsRetryLimitReached(packetDropped)
attr title "packet drop: retry limit reached, vector(packetBytes)"
vector 240 UAVNetwork_Multi.basicHosts[26].app[0] pingTxSeq:vector ETV
attr interpolationmode none
attr title "ping tx seq, vector"
vector 241 UAVNetwork_Multi.basicHosts[26].app[0] pingRxSeq:vector ETV
attr interpolationmode none
attr title "ping rx seq, vector"
vector 242 UAVNetwork_Multi.basicHosts[26].app[0] rtt:vector ETV
attr interpolationmode none
attr title "ping round-trip time, vector"
attr unit s
vector 243 UAVNetwork_Multi.basicHosts[16].app[0] pingTxSeq:vector ETV
attr interpolationmode none
attr title "ping tx seq, vector"
vector 244 UAVNetwork_Multi.basicHosts[7].ipv4.ip packetDropForwardingDisabled:vector(packetBytes) ETV
attr interpolationmode none
attr source packetDropReasonIsForwardingDisabled(packetDropped)
attr title "packet drop: forwarding disabled, vector(packetBytes)"
vector 245 UAVNetwork_Multi.basicHosts[5].ipv4.ip packetDropForwardingDisabled:vector(packetBytes) ETV
attr interpolationmode none
attr source packetDropReasonIsForwardingDisabled(packetDropped)
attr title "packet drop: forwarding disabled, vector(packetBytes)"
vector 246 UAVNetwork_Multi.basicHosts[26].wlan[0].mac packetDropRetryLimitReached:vector(packetBytes) ETV
attr interpolationmode none
attr source packetDropReasonIsRetryLimitReached(packetDropped)
attr title "packet drop: retry limit reached, vector(packetBytes)"
vector 247 UAVNetwork_Multi.basicHosts[11].app[0] pingRxSeq:vector ETV
attr interpolationmode none
attr title "ping rx seq, vector"
vector 248 UAVNetwork_Multi.basicHosts[11].app[0] rtt:vector ETV
attr interpolationmode none
attr title "ping round-trip time, vector"
attr unit s
vector 249 UAVNetwork_Multi.basicHosts[11].app[0] numLost:vector ETV
attr interpolationmode none
attr title "pings lost, vector"
vector 250 UAVNetwork_Multi.hostRouters[4].ipv4.ip packetDropHopLimitReached:vector(packetBytes) ETV
attr interpolationmode none
attr source packetDropReasonIsHopLimitReached(packetDropped)
attr title "packet drop: hop limit reached, vector(packetBytes)"
vector 251 UAVNetwork_Multi.basicHosts[25].app[0] pingRxSeq:vector ETV
attr interpolationmode none
attr title "ping rx seq, vector"
vector 252 UAVNetwork_Multi.basicHosts[25].app[0] rtt:vector ETV
attr interpolationmode none
attr title "ping round-trip time, vector"
attr unit s
vector 253 UAVNetwork_Multi.basicHosts[25].app[0] numLost:vector ETV
attr interpolationmode none
attr title "pings lost, vector"
vector 254 UAVNetwork_Multi.basicHosts[20].ipv4.ip packetDropForwardingDisabled:vector(packetBytes) ETV
attr interpolationmode none
attr source packetDropReasonIsForwardingDisabled(packetDropped)
attr title "packet drop: forwarding disabled, vector(packetBytes)"
vector 255 UAVNetwork_Multi.basicHosts[19].app[0] pingRxSeq:vector ETV
attr interpolationmode none
attr title "ping rx seq, vector"
vector 256 UAVNetwork_Multi.basicHosts[19].app[0] rtt:vector ETV
attr interpolationmode none
attr title "ping round-trip time, vector"
attr unit s
vector 257 UAVNetwork_Multi.basicHosts[19].app[0] numLost:vector ETV
attr interpolationmode none
attr title "pings lost, vector"
vector 258 UAVNetwork_Multi.basicHosts[22].app[0] pingRxSeq:vector ETV
attr interpolationmode none
attr title "ping rx seq, vector"
vector 259 UAVNetwork_Multi.basicHosts[22].app[0] rtt:vector ETV
attr interpolationmode none
attr title "ping round-trip time, vector"
attr unit s
vector 260 UAVNetwork_Multi.basicHosts[22].app[0] numLost:vector ETV
attr interpolationmode none
attr title "pings lost, vector"
vector 261 UAVNetwork_Multi.basicHosts[6].app[0] pingRxSeq:vector ETV
attr interpolationmode none
attr title "ping rx seq, vector"
vector 262 UAVNetwork_Multi.basicHosts[6].app[0] rtt:vector ETV
attr interpolationmode none
attr title "ping round-trip time, vector"
attr unit s
vector 263 UAVNetwork_Multi.basicHosts[6].app[0] numLost:vector ETV
attr interpolationmode none
attr title "pings lost, vector"
vector 264 UAVNetwork_Multi.basicHosts[4].ipv4.ip packetDropForwardingDisabled:vector(packetBytes) ETV
attr interpolationmode none
attr source packetDropReasonIsForwardingDisabled(packetDropped)
attr title "packet drop: forwarding disabled, vector(packetBytes)"
vector 265 UAVNetwork_Multi.basicHosts[24].app[0] pingRxSeq:vector ETV
attr interpolationmode none
attr title "ping rx seq, vector"
vector 266 UAVNetwork_Multi.basicHosts[24].app[0] rtt:vector ETV
attr interpolationmode none
attr title "ping round-trip time, vector"
attr unit s
vector 267 UAVNetwork_Multi.basicHosts[24].app[0] numLost:vector ETV
attr interpolationmode none
attr title "pings lost, vector"
vector 268 UAVNetwork_Multi.basicHosts[1].lo[0].lo rcvdPkFromHl:vector(packetBytes) ETV
attr interpolationmode none
attr source packetReceivedFromUpper
attr title "packets received from higher layer, vector(packetBytes)"
vector 269 UAVNetwork_Multi.basicHosts[1].lo[0].lo passedUpPk:vector(packetBytes) ETV
attr interpolationmode none
attr source packetSentToUpper
attr title "packets passed to higher layer, vector(packetBytes)"
vector 270 UAVNetwork_Multi.basicHosts[1].app[0] pingRxSeq:vector ETV
attr interpolationmode none
attr title "ping rx seq, vector"
vector 271 UAVNetwork_Multi.basicHosts[1].app[0] numLost:vector ETV
attr interpolationmode none
attr title "pings lost, vector"
vector 272 UAVNetwork_Multi.basicHosts[13].ipv4.ip packetDropForwardingDisabled:vector(packetBytes) ETV
attr interpolationmode none
attr source packetDropReasonIsForwardingDisabled(packetDropped)
attr title "packet drop: forwarding disabled, vector(packetBytes)"
vector 273 UAVNetwork_Multi.hostRouters[3].ipv4.ip packetDropHopLimitReached:vector(packetBytes) ETV
attr interpolationmode none
attr source packetDropReasonIsHopLimitReached(packetDropped)
attr title "packet drop: hop limit reached, vector(packetBytes)"
vector 274 UAVNetwork_Multi.basicHosts[8].ipv4.ip packetDropForwardingDisabled:vector(packetBytes) ETV
attr interpolationmode none
attr source packetDropReasonIsForwardingDisabled(packetDropped)
attr title "packet drop: forwarding disabled, vector(packetBytes)"
vector 275 UAVNetwork_Multi.basicHosts[9].wlan[0].mac packetDropRetryLimitReached:vector(packetBytes) ETV
attr interpolationmode none
attr source packetDropReasonIsRetryLimitReached(packetDropped)
attr title "packet drop: retry limit reached, vector(packetBytes)"
vector 276 UAVNetwork_Multi.basicHosts[2].app[0] pingRxSeq:vector ETV
attr interpolationmode none
attr title "ping rx seq, vector"
vector 277 UAVNetwork_Multi.basicHosts[2].app[0] rtt:vector ETV
attr interpolationmode none
attr title "ping round-trip time, vector"
attr unit s
vector 278 UAVNetwork_Multi.basicHosts[2].app[0] numLost:vector ETV
attr interpolationmode none
attr title "pings lost, vector"
vector 279 UAVNetwork_Multi.basicHosts[16].wlan[0].mac packetDropRetryLimitReached:vector(packetBytes) ETV
attr interpolationmode none
attr source packetDropReasonIsRetryLimitReached(packetDropped)
attr title "packet drop: retry limit reached, vector(packetBytes)"
vector 280 UAVNetwork_Multi.basicHosts[21].app[0] pingRxSeq:vector ETV
attr interpolationmode none
attr title "ping rx seq, vector"
vector 281 UAVNetwork_Multi.basicHosts[21].app[0] rtt:vector ETV
attr interpolationmode none
attr title "ping round-trip time, vector"
attr unit s
vector 282 UAVNetwork_Multi.basicHosts[21].app[0] numLost:vector ETV
attr interpolationmode none
attr title "pings lost, vector"
vector 283 UAVNetwork_Multi.basicHosts[3].app[0] pingRxSeq:vector ETV
attr interpolationmode none
attr title "ping rx seq, vector"
vector 284 UAVNetwork_Multi.basicHosts[3].app[0] rtt:vector ETV
attr interpolationmode none
attr title "ping round-trip time, vector"
attr unit s
vector 285 UAVNetwork_Multi.basicHosts[3].app[0] numLost:vector ETV
attr interpolationmode none
attr title "pings lost, vector"
vector 286 UAVNetwork_Multi.basicHosts[7].app[0] pingRxSeq:vector ETV
attr interpolationmode none
attr title "ping rx seq, vector"
vector 287 UAVNetwork_Multi.basicHosts[7].app[0] rtt:vector ETV
attr interpolationmode none
attr title "ping round-trip time, vector"
attr unit s
vector 288 UAVNetwork_Multi.basicHosts[7].app[0] numLost:vector ETV
attr interpolationmode none
attr title "pings lost, vector"
vector 289 UAVNetwork_Multi.basicHosts[5].app[0] pingRxSeq:vector ETV
attr interpolationmode none
attr title "ping rx seq, vector"
vector 290 UAVNetwork_Multi.basicHosts[5].app[0] rtt:vector ETV
attr interpolationmode none
attr title "ping round-trip time, vector"
attr unit s
vector 291 UAVNetwork_Multi.basicHosts[5].app[0] numLost:vector ETV
attr interpolationmode none
attr title "pings lost, vector"
vector 292 UAVNetwork_Multi.basicHosts[14].app[0] pingRxSeq:vector ETV
attr interpolationmode none
attr title "ping rx seq, vector"
vector 293 UAVNetwork_Multi.basicHosts[14].app[0] rtt:vector ETV
attr interpolationmode none
attr title "ping round-trip time, vector"
attr unit s
vector 294 UAVNetwork_Multi.basicHosts[14].app[0] numLost:vector ETV
attr interpolationmode none
attr title "pings lost, vector"
vector 295 UAVNetwork_Multi.basicHosts[9].ipv4.ip packetDropForwardingDisabled:vector(packetBytes) ETV
attr interpolationmode none
attr source packetDropReasonIsForwardingDisabled(packetDropped)
attr title "packet drop: forwarding disabled, vector(packetBytes)"
vector 296 UAVNetwork_Multi.hostRouters[2].app[0] pingTxSeq:vector ETV
attr interpolationmode none
attr title "ping tx seq, vector"
vector 297 UAVNetwork_Multi.hostRouters[2].app[0] pingRxSeq:vector ETV
attr interpolationmode none
attr title "ping rx seq, vector"
vector 298 UAVNetwork_Multi.hostRouters[2].app[0] rtt:vector ETV
attr interpolationmode none
attr title "ping round-trip time, vector"
attr unit s
vector 299 UAVNetwork_Multi.hostRouters[0].app[0] pingTxSeq:vector ETV
attr interpolationmode none
attr title "ping tx seq, vector"
vector 300 UAVNetwork_Multi.basicHosts[15].wlan[0].mac packetDropRetryLimitReached:vector(packetBytes) ETV
attr interpolationmode none
attr source packetDropReasonIsRetryLimitReached(packetDropped)
attr title "packet drop: retry limit reached, vector(packetBytes)"
vector 301 UAVNetwork_Multi.hostRouters[0].app[0] pingRxSeq:vector ETV
attr interpolationmode none
attr title "ping rx seq, vector"
vector 302 UAVNetwork_Multi.hostRouters[0].app[0] rtt:vector ETV
attr interpolationmode none
attr title "ping round-trip time, vector"
attr unit s
vector 303 UAVNetwork_Multi.hostRouters[3].app[0] pingTxSeq:vector ETV
attr interpolationmode none
attr title "ping tx seq, vector"
vector 304 UAVNetwork_Multi.basicHosts[29].app[0] pingRxSeq:vector ETV
attr interpolationmode none
attr title "ping rx seq, vector"
vector 305 UAVNetwork_Multi.basicHosts[29].app[0] rtt:vector ETV
attr interpolationmode none
attr title "ping round-trip time, vector"
attr unit s
vector 306 UAVNetwork_Multi.basicHosts[29].app[0] numLost:vector ETV
attr interpolationmode none
attr title "pings lost, vector"
vector 307 UAVNetwork_Multi.hostRouters[3].app[0] pingRxSeq:vector ETV
attr interpolationmode none
attr title "ping rx seq, vector"
vector 308 UAVNetwork_Multi.hostRouters[3].app[0] rtt:vector ETV
attr interpolationmode none
attr title "ping round-trip time, vector"
attr unit s
vector 309 UAVNetwork_Multi.basicHosts[8].app[0] pingRxSeq:vector ETV
attr interpolationmode none
attr title "ping rx seq, vector"
vector 310 UAVNetwork_Multi.basicHosts[8].app[0] rtt:vector ETV
attr interpolationmode none
attr title "ping round-trip time, vector"
attr unit s
vector 311 UAVNetwork_Multi.basicHosts[8].app[0] numLost:vector ETV
attr interpolationmode none
attr title "pings lost, vector"
vector 312 UAVNetwork_Multi.hostRouters[1].ipv4.ip packetDropHopLimitReached:vector(packetBytes) ETV
attr interpolationmode none
attr source packetDropReasonIsHopLimitReached(packetDropped)
attr title "packet drop: hop limit reached, vector(packetBytes)"
vector 313 UAVNetwork_Multi.basicHosts[1].app[0] rtt:vector ETV
attr interpolationmode none
attr title "ping round-trip time, vector"
attr unit s
vector 314 UAVNetwork_Multi.basicHosts[1].ipv4.ip packetDropForwardingDisabled:vector(packetBytes) ETV
attr interpolationmode none
attr source packetDropReasonIsForwardingDisabled(packetDropped)
attr title "packet drop: forwarding disabled, vector(packetBytes)"
vector 315 UAVNetwork_Multi.hostRouters[1].app[0] pingTxSeq:vector ETV
attr interpolationmode none
attr title "ping tx seq, vector"
vector 316 UAVNetwork_Multi.hostRouters[1].app[0] pingRxSeq:vector ETV
attr interpolationmode none
attr title "ping rx seq, vector"
vector 317 UAVNetwork_Multi.hostRouters[1].app[0] rtt:vector ETV
attr interpolationmode none
attr title "ping round-trip time, vector"
attr unit s
vector 318 UAVNetwork_Multi.basicHosts[2].lo[0].lo rcvdPkFromHl:vector(packetBytes) ETV
attr interpolationmode none
attr source packetReceivedFromUpper
attr title "packets received from higher layer, vector(packetBytes)"
vector 319 UAVNetwork_Multi.basicHosts[2].lo[0].lo passedUpPk:vector(packetBytes) ETV
attr interpolationmode none
attr source packetSentToUpper
attr title "packets passed to higher layer, vector(packetBytes)"
vector 320 UAVNetwork_Multi.basicHosts[27].wlan[0].mac packetDropRetryLimitReached:vector(packetBytes) ETV
attr interpolationmode none
attr source packetDropReasonIsRetryLimitReached(packetDropped)
attr title "packet drop: retry limit reached, vector(packetBytes)"
vector 321 UAVNetwork_Multi.hostRouters[4].app[0] pingTxSeq:vector ETV
attr interpolationmode none
attr title "ping tx seq, vector"
vector 322 UAVNetwork_Multi.hostRouters[4].app[0] pingRxSeq:vector ETV
attr interpolationmode none
attr title "ping rx seq, vector"
vector 323 UAVNetwork_Multi.hostRouters[4].app[0] rtt:vector ETV
attr interpolationmode none
attr title "ping round-trip time, vector"
attr unit s
vector 324 UAVNetwork_Multi.basicHosts[15].app[0] pingRxSeq:vector ETV
attr interpolationmode none
attr title "ping rx seq, vector"
vector 325 UAVNetwork_Multi.basicHosts[15].app[0] rtt:vector ETV
attr interpolationmode none
attr title "ping round-trip time, vector"
attr unit s
vector 326 UAVNetwork_Multi.basicHosts[15].app[0] numLost:vector ETV
attr interpolationmode none
attr title "pings lost, vector"
vector 327 UAVNetwork_Multi.basicHosts[25].wlan[0].mac packetDropRetryLimitReached:vector(packetBytes) ETV
attr interpolationmode none
attr source packetDropReasonIsRetryLimitReached(packetDropped)
attr title "packet drop: retry limit reached, vector(packetBytes)"
vector 328 UAVNetwork_Multi.basicHosts[11].wlan[0].mac packetDropRetryLimitReached:vector(packetBytes) ETV
attr interpolationmode none
attr source packetDropReasonIsRetryLimitReached(packetDropped)
attr title "packet drop: retry limit reached, vector(packetBytes)"
vector 329 UAVNetwork_Multi.basicHosts[2].ipv4.ip packetDropForwardingDisabled:vector(packetBytes) ETV
attr interpolationmode none
attr source packetDropReasonIsForwardingDisabled(packetDropped)
attr title "packet drop: forwarding disabled, vector(packetBytes)"
vector 330 UAVNetwork_Multi.basicHosts[29].wlan[0].mac packetDropRetryLimitReached:vector(packetBytes) ETV
attr interpolationmode none
attr source packetDropReasonIsRetryLimitReached(packetDropped)
attr title "packet drop: retry limit reached, vector(packetBytes)"
vector 331 UAVNetwork_Multi.basicHosts[4].wlan[0].mac packetDropRetryLimitReached:vector(packetBytes) ETV
attr interpolationmode none
attr source packetDropReasonIsRetryLimitReached(packetDropped)
attr title "packet drop: retry limit reached, vector(packetBytes)"
vector 332 UAVNetwork_Multi.basicHosts[3].lo[0].lo rcvdPkFromHl:vector(packetBytes) ETV
attr interpolationmode none
attr source packetReceivedFromUpper
attr title "packets received from higher layer, vector(packetBytes)"
vector 333 UAVNetwork_Multi.basicHosts[3].lo[0].lo passedUpPk:vector(packetBytes) ETV
attr interpolationmode none
attr source packetSentToUpper
attr title "packets passed to higher layer, vector(packetBytes)"
vector 334 UAVNetwork_Multi.basicHosts[14].wlan[0].mac packetDropRetryLimitReached:vector(packetBytes) ETV
attr interpolationmode none
attr source packetDropReasonIsRetryLimitReached(packetDropped)
attr title "packet drop: retry limit reached, vector(packetBytes)"
vector 335 UAVNetwork_Multi.basicHosts[12].wlan[0].mac packetDropRetryLimitReached:vector(packetBytes) ETV
attr interpolationmode none
attr source packetDropReasonIsRetryLimitReached(packetDropped)
attr title "packet drop: retry limit reached, vector(packetBytes)"
vector 336 UAVNetwork_Multi.basicHosts[20].wlan[0].mac packetDropRetryLimitReached:vector(packetBytes) ETV
attr interpolationmode none
attr source packetDropReasonIsRetryLimitReached(packetDropped)
attr title "packet drop: retry limit reached, vector(packetBytes)"
vector 337 UAVNetwork_Multi.basicHosts[8].wlan[0].mac packetDropRetryLimitReached:vector(packetBytes) ETV
attr interpolationmode none
attr source packetDropReasonIsRetryLimitReached(packetDropped)
attr title "packet drop: retry limit reached, vector(packetBytes)"
vector 338 UAVNetwork_Multi.basicHosts[21].ipv4.ip packetDropForwardingDisabled:vector(packetBytes) ETV
attr interpolationmode none
attr source packetDropReasonIsForwardingDisabled(packetDropped)
attr title "packet drop: forwarding disabled, vector(packetBytes)"
vector 339 UAVNetwork_Multi.basicHosts[0].app[0] rtt:vector ETV
attr interpolationmode none
attr title "ping round-trip time, vector"
attr unit s
vector 340 UAVNetwork_Multi.basicHosts[0].app[0] numLost:vector ETV
attr interpolationmode none
attr title "pings lost, vector"
vector 341 UAVNetwork_Multi.basicHosts[4].lo[0].lo rcvdPkFromHl:vector(packetBytes) ETV
attr interpolationmode none
attr source packetReceivedFromUpper
attr title "packets received from higher layer, vector(packetBytes)"
vector 342 UAVNetwork_Multi.basicHosts[4].lo[0].lo passedUpPk:vector(packetBytes) ETV
attr interpolationmode none
attr source packetSentToUpper
attr title "packets passed to higher layer, vector(packetBytes)"
vector 343 UAVNetwork_Multi.basicHosts[4].app[0] numLost:vector ETV
attr interpolationmode none
attr title "pings lost, vector"
vector 344 UAVNetwork_Multi.basicHosts[6].wlan[0].mac packetDropRetryLimitReached:vector(packetBytes) ETV
attr interpolationmode none
attr source packetDropReasonIsRetryLimitReached(packetDropped)
attr title "packet drop: retry limit reached, vector(packetBytes)"
vector 345 UAVNetwork_Multi.basicHosts[9].app[0] pingRxSeq:vector ETV
attr interpolationmode none
attr title "ping rx seq, vector"
vector 346 UAVNetwork_Multi.basicHosts[9].app[0] rtt:vector ETV
attr interpolationmode none
attr title "ping round-trip time, vector"
attr unit s
vector 347 UAVNetwork_Multi.basicHosts[9].app[0] numLost:vector ETV
attr interpolationmode none
attr title "pings lost, vector"
vector 348 UAVNetwork_Multi.basicHosts[24].wlan[0].mac packetDropRetryLimitReached:vector(packetBytes) ETV
attr interpolationmode none
attr source packetDropReasonIsRetryLimitReached(packetDropped)
attr title "packet drop: retry limit reached, vector(packetBytes)"
vector 349 UAVNetwork_Multi.basicHosts[3].ipv4.ip packetDropForwardingDisabled:vector(packetBytes) ETV
attr interpolationmode none
attr source packetDropReasonIsForwardingDisabled(packetDropped)
attr title "packet drop: forwarding disabled, vector(packetBytes)"
vector 350 UAVNetwork_Multi.basicHosts[21].wlan[0].mac packetDropRetryLimitReached:vector(packetBytes) ETV
attr interpolationmode none
attr source packetDropReasonIsRetryLimitReached(packetDropped)
attr title "packet drop: retry limit reached, vector(packetBytes)"
vector 351 UAVNetwork_Multi.basicHosts[26].app[0] numLost:vector ETV
attr interpolationmode none
attr title "pings lost, vector"
vector 352 UAVNetwork_Multi.hostRouters[2].app[0] numLost:vector ETV
attr interpolationmode none
attr title "pings lost, vector"
vector 353 UAVNetwork_Multi.basicHosts[18].wlan[0].mac packetDropRetryLimitReached:vector(packetBytes) ETV
attr interpolationmode none
[...]
154	8590650 383 6253 688680 3.071036058711 15.071036058711 13 0 12 78 650
155	8591033 30632 6259 690567 3.071757934407 15.120806971567 1056 0 2 1056 1584
156	8621665 27244 6382 696741 3.072888958682 15.144441723053 932 0 2 932 1398
157	8648909 5749 6674 671957 3.07466492454 14.488712067205 191 17 104 12831 929859
158	8654658 8907 6701 692914 3.074666335297 15.127630949797 294 17 104 19742 1399606
159	8663565 23052 6779 691017 3.07479492454 15.121732116077 788 0 2 788 1182
160	8686617 24516 6869 691394 3.075459514648 15.122881042323 836 0 2 836 1254
161	8711133 30312 6973 697587 3.076076025092 15.207895829305 1042 0 2 1043 1565
162	8741445 23752 7017 689881 3.076643970677 15.117392320883 816 0 2 816 1224
163	8765197 10344 7074 670369 3.07667135591 14.393767510691 343 17 104 24292 1856956
164	8775541 33176 7158 692250 3.077280679876 15.12553434903 1136 0 2 1136 1704
165	8808717 17016 7197 694858 3.077429431743 15.135009002338 584 0 2 584 876
166	8825733 12763 7279 694423 3.077876139008 15.132773426668 423 17 104 28941 2092733
167	8838496 14316 7281 694421 3.077876159317 15.132773222456 474 17 104 32594 2378562
168	8852812 34988 7358 691659 3.078066696606 15.123664997146 1192 0 2 1192 1788
169	8887800 28776 7498 689977 3.078991583003 15.118117152041 988 0 2 988 1482
170	8916576 16860 7599 694179 3.079587030522 15.131916849047 558 17 104 37892 2750752
171	8933436 35828 7631 689780 3.079936801753 15.116406272412 1224 0 2 1224 1836
172	8969264 210 8114 697219 3.123400274908 15.165366743102 7 68 68 476 32368
173	8969474 89 8606 688947 3.127783608351 15.073582351354 3 0 12 22 244
174	8969563 125 8606 688947 3.127783608351 15.073582351354 3 0.002546292643 0.05674754964 0.06185930241 0.0032333495820313
175	8969688 352 8776 663433 3.272656294517 14.272656294517 12 0 11 66 506
176	8970040 8996 9301 677602 3.277291505506 14.645572852133 296 68 104 23604 1965008
177	8979036 325 9306 637071 3.277291584357 13.454509847604 11 84 84 924 77616
178	8979361 15280 9432 678824 3.277621505506 14.65666678165 524 0 2 524 786
179	8994641 23260 9468 692892 3.27780176299 15.127629497143 796 0 2 796 1194
180	9017901 353 10548 663870 3.297534605255 14.297534605255 12 0 11 66 506
181	9018254 204 12363 529243 3.312508676891 12.300160621125 7 0 9 31 219
182	9018458 253 12363 529243 3.312508676891 12.300160621125 6 0.002546436133 0.014974071636 0.028645085573 0.00026169528942388
183	9018711 28 12705 12705 3.314933015436 3.314933015436 1 1 1 1 1
184	9018739 87 12705 381986 3.314933015436 10.300261042833 3 0 4 6 20
185	9018826 353 13104 667403 3.337396161631 14.337396161631 12 0 11 66 506
186	9019179 23140 13485 693287 3.342526417938 15.129167455057 788 0 2 788 1182
187	9042319 15355 13592 692906 3.343121712429 15.127630479294 506 17 104 35698 2663726
188	9057674 453 14297 584736 3.347264384437 12.833806055946 15 84 84 1260 105840
189	9058127 28374 14427 692494 3.347615294286 15.126198996902 964 0 2 964 1446
190	9086501 273 15008 472526 3.370818797663 11.144360565234 9 68 104 684 54000
191	9086774 341 15885 669023 3.38344152132 14.38344152132 12 0 11 66 506
192	9087115 20868 16089 691840 3.384296837247 15.124076445783 712 0 2 712 1068
193	9107983 353 16161 669169 3.384381708223 14.384381708223 12 0 11 66 506
194	9108336 22760 16909 694151 3.387238107372 15.131915318113 780 0 2 780 1170
195	9131096 16348 17300 670740 3.388023389427 14.395633801304 560 0 2 560 840
196	9147444 17284 18046 671621 3.390468031514 14.480134207266 592 0 2 592 888
197	9164728 353 18910 670272 3.392784793163 14.392784793163 12 0 11 66 506
198	9165081 327 19356 264031 3.395067329886 8.792806167209 11 84 84 924 77616
199	9165408 304 21571 657364 3.408713898839 13.927077773594 10 84 84 840 70560
200	9165712 353 23483 670805 3.423654796788 14.423654796788 12 0 11 66 506
201	9166065 210 23506 654767 3.423683447134 13.848773115015 7 84 84 588 49392
202	9166275 297 23718 657161 3.424966037669 13.892833687423 10 84 84 840 70560
203	9166572 241 24747 621278 3.436174835206 13.339618494355 8 56 84 644 52528
204	9166813 353 24878 670992 3.437587209977 14.437587209977 12 0 11 66 506
205	9167166 184 26689 666302 3.464734905888 14.323681873818 6 68 104 480 40128
206	9167350 353 27137 671314 3.477665111655 14.477665111655 12 0 11 66 506
207	9167703 353 27141 671579 3.479977171402 14.479977171402 12 0 11 66 506
208	9168056 89 27465 542912 3.483747482286 12.483431521698 3 84 84 252 21168
209	9168145 353 30635 673081 3.528894921532 14.528894921532 12 0 11 66 506
210	9168498 353 30818 673440 3.544883177383 14.544883177383 12 0 11 66 506
211	9168851 394 30878 677335 3.545924335302 14.624924696633 13 84 84 1092 91728
212	9169245 353 30991 673619 3.548813502304 14.548813502304 12 0 11 66 506
213	9169598 58 30994 30999 3.548813502304 3.548813502304 2 84 84 168 14112
214	9169656 58 30994 30999 3.548813502304 3.548813502304 2 84 84 168 14112
215	9169714 87 31001 554895 3.548813502304 12.552496465674 3 0 9 13 97
216	9169801 353 31012 674934 3.568044563755 14.568044563755 12 0 11 66 506
217	9170154 353 31196 675373 3.592844616389 14.592844616389 12 0 11 66 506
218	9170507 353 32341 675730 3.602763370378 14.602763370378 12 0 11 66 506
219	9170860 122 32982 656288 3.605243459781 13.868666659344 4 84 84 336 28224
220	9170982 87 33114 560486 3.605521163754 12.604987889201 3 0 9 13 97
221	9171069 84 33114 560486 3.605521163754 12.604987889201 2 0.002224518823 0.002757793376 0.004982312199 1.2553908298591e-005
222	9171153 353 34767 677283 3.623563696397 14.623563696397 12 0 11 66 506
223	9171506 120 34813 676140 3.624704091638 14.606288994079 4 84 84 336 28224
224	9171626 353 34937 677632 3.645894115092 14.645894115092 12 0 11 66 506
225	9171979 483 35628 672777 3.655436775541 14.494298325849 16 48 84 1308 108144
226	9172462 354 37821 678894 3.715189364972 14.715189364972 12 0 11 66 506
227	9172816 365 42746 611955 3.775523836241 13.062155612936 12 68 104 852 61680
228	9173181 354 43428 680709 3.791725033429 14.791725033429 12 0 11 66 506
229	9173535 212 43482 654231 3.793206081046 13.837820398195 7 84 84 588 49392
230	9173747 354 43608 681818 3.812168726465 14.812168726465 12 0 11 66 506
231	9174101 354 45612 682618 3.836078768829 14.836078768829 12 0 11 66 506
232	9174455 342 45791 683341 3.84426574409 14.84426574409 12 0 11 66 506
233	9174797 354 45923 683618 3.847251737257 14.847251737257 12 0 11 66 506
234	9175151 354 46522 683807 3.857945619849 14.857945619849 12 0 11 66 506
235	9175505 28 48107 48107 3.872088844701 3.872088844701 1 0 0 0 0
236	9175533 41 48107 48107 3.872088844701 3.872088844701 1 0.036010075872 0.036010075872 0.036010075872 0.0012967255643072
237	9175574 354 48604 684176 3.891773001757 14.891773001757 12 0 11 66 506
238	9175928 123 48865 453774 3.895065628792 10.946997158075 4 68 104 308 24688
239	9176051 151 49608 689145 3.902330158508 15.075327819665 5 68 104 376 29312
240	9176202 354 49865 684539 3.925596633228 14.925596633228 12 0 11 66 506
241	9176556 57 50074 221093 3.928162219678 7.928241768795 2 0 4 4 16
242	9176613 82 50074 221093 3.928162219678 7.928241768795 2 0.00256558645 0.002645135567 0.005210722017 1.3578976000232e-005
243	9176695 354 50204 684732 3.963662764058 14.963662764058 12 0 11 66 506
244	9177049 119 50489 653523 4.058033394551 13.813449738489 4 84 84 336 28224
245	9177168 241 50991 681944 4.074816417435 14.813249224181 8 48 84 600 46944
246	9177409 58 74413 96596 4.304485654093 4.684791261977 2 68 68 136 9248
247	9177467 176 75535 669181 4.386767706265 14.384381708223 6 1 11 33 251
248	9177643 209 75535 479871 4.386767706265 11.386648624706 5 0.002266916483 0.003025610545 0.013110532674 3.4763659277706e-005
249	9177852 117 75535 669181 4.386767706265 14.384381708223 4 1 6 14 62
250	9177969 120 75757 473695 4.388552005131 11.280402198928 4 84 84 336 28224
251	9178089 146 76454 670661 4.395349270002 14.395469801304 5 1 11 25 187
252	9178235 210 76454 670661 4.395349270002 14.395469801304 5 0.002406533296 0.007866722881 0.019409066745 9.6566068142153e-005
253	9178445 87 76454 670661 4.395349270002 14.395469801304 3 1 7 11 59
254	9178532 275 78344 662891 4.450507807617 14.089248148408 9 84 84 756 63504
255	9178807 205 79849 671539 4.47990996677 14.479970207266 7 1 11 40 300
256	9179012 294 79849 671539 4.47990996677 14.479970207266 7 0.00220644291 0.043006513857 0.060363748757 0.001906656150435
257	9179306 86 79849 671539 4.47990996677 14.479970207266 3 1 5 9 35
258	9179392 202 80790 483006 4.53149953082 11.531181800604 7 1 8 31 175
259	9179594 251 80790 483006 4.53149953082 11.531181800604 6 0.002227117461 0.002766112854 0.014736909203 3.6448271053547e-005
260	9179845 115 80790 483006 4.53149953082 11.531181800604 4 1 3 8 18
261	9179960 203 81161 483350 4.547449738728 11.54734849405 7 1 8 32 188
262	9180163 250 81161 483350 4.547449738728 11.54734849405 6 0.00210514656 0.01131551301 0.023262617249 0.00015670909543277
263	9180413 57 81161 253618 4.547449738728 8.546988323943 2 1 2 3 5
264	9180470 119 81612 443990 4.55514558937 10.876537800369 4 84 84 336 28224
265	9180589 171 83748 484085 4.57275116004 11.57039155461 6 1 8 25 139
266	9180760 249 83748 484085 4.57275116004 11.57039155461 6 0.002346990855 0.004706596285 0.017656692061 5.5886597621915e-005
267	9181009 85 83748 484085 4.57275116004 11.57039155461 3 1 3 6 14
268	9181094 58 83891 83896 4.592844616389 4.592844616389 2 84 84 168 14112
269	9181152 58 83891 83896 4.592844616389 4.592844616389 2 84 84 168 14112
270	9181210 234 83898 675594 4.592844616389 14.595029108763 8 1 11 43 309
271	9181444 87 83898 675594 4.592844616389 14.595029108763 3 1 4 7 21
272	9181531 458 83961 674280 4.604184371942 14.554311151021 15 48 84 1196 97168
273	9181989 60 89997 688444 4.646228187837 15.069630046313 2 84 84 168 14112
274	9182049 484 95557 683400 4.676673036802 14.84556664245 16 48 84 1308 108144
275	9182533 60 96712 501418 4.685603730277 11.832884557297 2 68 68 136 9248
276	9182593 266 104034 679130 4.719978743935 14.717675480253 9 1 11 50 358
277	9182859 297 104034 679130 4.719978743935 14.717675480253 7 0.002384496896 0.141230417065 0.164812221011 0.020068881547866
278	9183156 118 104034 679130 4.719978743935 14.717675480253 4 1 4 9 25
279	9183274 153 106007 649449 4.731357576694 13.666701235006 5 68 68 340 23120
280	9183427 205 107510 504962 4.815035431271 11.880731264844 7 1 8 32 188
281	9183632 295 107510 504962 4.815035431271 11.880731264844 7 0.002866704806 0.068562538379 0.11244665193 0.0054054774156529
282	9183927 58 107510 269807 4.815035431271 8.837235724556 2 1 2 3 5
283	9183985 263 108047 592532 4.847012398073 12.879457024859 9 1 9 50 350
284	9184248 295 108047 592367 4.847012398073 12.877790280493 7 0.002536398057 0.033524536403 0.062864908287 0.0013624111712712
285	9184543 88 108047 592532 4.847012398073 12.879457024859 3 1 2 5 9
286	9184631 234 108401 503163 4.850038658428 11.850037099574 8 1 8 37 213
287	9184865 253 108401 503163 4.850038658428 11.850037099574 6 0.002285289998 0.015527802185 0.037911136416 0.00040779064892006
288	9185118 87 108401 273773 4.850038658428 8.867198251729 3 1 2 5 9
289	9185205 206 108757 684037 4.860312352192 14.860630677528 7 1 11 36 260
290	9185411 253 108757 684037 4.860312352192 14.860630677528 6 0.002366732343 0.047112443354 0.061001569045 0.0022585523184564
291	9185664 118 108757 684037 4.860312352192 14.860630677528 4 1 5 11 39
292	9185782 177 109111 684410 4.894498822544 14.894559137728 6 1 11 33 251
293	9185959 254 109111 684410 4.894498822544 14.894559137728 6 0.002385989318 0.051426430399 0.082031664967 0.0030722081314182
294	9186213 118 109111 684410 4.894498822544 14.894559137728 4 1 6 14 62
295	9186331 56 109567 167891 4.932004256 6.55593148065 2 84 84 168 14112
296	9186387 315 111776 685131 5.02021839912 15.02021839912 11 0 10 55 385
297	9186702 239 113281 686861 5.040666412978 15.038416324845 8 0 10 46 380
298	9186941 298 113281 686600 5.040666412978 15.036400528961 7 0.002348425845 0.020448013858 0.08097268538 0.0012742718925701
299	9187239 326 115792 689271 5.087129296968 15.087129296968 11 0 10 55 385
300	9187565 217 118740 650185 5.108652634229 13.691805221174 7 68 104 548 44752
301	9187782 176 119259 689515 5.11381151382 15.089618042322 6 0 10 30 250
302	9187958 253 119259 689515 5.11381151382 15.089618042322 6 0.002367277491 0.026682216852 0.045397684907 0.00079452712066236
303	9188211 295 125056 667778 5.368241537362 14.368241537362 10 0 9 45 285
304	9188506 118 125485 667641 5.372330614191 14.339642552629 4 2 11 24 186
305	9188624 168 125485 667641 5.372330614191 14.339642552629 4 0.002246390998 0.03493445256 0.071091369122 0.0022308121314575
306	9188792 88 125485 667641 5.372330614191 14.339642552629 3 2 8 14 84
307	9188880 87 125645 669624 5.373508700106 14.38852110984 3 0 9 17 145
308	9188967 126 125645 669624 5.373508700106 14.38852110984 3 0.002348420948 0.020279572478 0.02789515617 0.00044451914421124
309	9189093 176 128119 481180 5.426040206636 11.423654796788 6 2 8 31 187
310	9189269 210 128119 401874 5.426040206636 10.476788016697 5 0.002385409848 0.053133219909 0.069152120335 0.0029009282390148
311	9189479 58 128119 250358 5.426040206636 8.427351796338 2 2 3 5 13
312	9189537 492 131540 695643 5.493079028551 15.138974021507 16 84 84 1344 112896
313	9190029 296 133976 675594 5.595110634914 14.595029108763 7 0.002066709199 0.014329997581 0.027466518175 0.00023417739349027
314	9190325 153 139927 683678 5.631491804664 14.848253040856 5 48 84 348 25776
315	9190478 295 142943 677639 5.648171876557 14.648171876557 10 0 9 45 285
316	9190773 176 143767 678325 5.65535254391 14.652873084305 6 0 9 28 204
317	9190949 254 143767 678325 5.65535254391 14.652873084305 6 0.002178402931 0.007180667353 0.025155740941 0.00012752554302964
318	9191203 60 145151 145156 5.715189364972 5.715189364972 2 84 84 168 14112
319	9191263 60 145151 145156 5.715189364972 5.715189364972 2 84 84 168 14112
320	9191323 304 145243 458565 5.727875985616 11.004516384586 10 68 104 752 58624
321	9191627 285 148053 682268 5.83261984284 14.83261984284 10 0 9 45 285
322	9191912 177 148314 682526 5.835009170824 14.835048372876 6 0 9 25 175
323	9192089 255 148314 682526 5.835009170824 14.835048372876 6 0.002389327984 0.010468332808 0.027449341679 0.00018190009493599
324	9192344 119 152602 511047 6.059598776194 12.059279205349 4 3 9 27 203
325	9192463 170 152602 511047 6.059598776194 12.059279205349 4 0.002285465068 0.04620223336 0.053939728519 0.002154783096848
326	9192633 59 152602 365934 6.059598776194 10.058998440794 2 3 6 9 45
327	9192692 31 161743 161743 6.423348261585 6.423348261585 1 104 104 104 10816
328	9192723 155 164737 529503 6.458595216191 12.320881188861 5 68 104 376 29312
329	9192878 215 165330 536592 6.478726354697 12.410378881649 7 48 84 516 39888
330	9193093 181 166753 697497 6.502106784919 15.205693829305 6 68 68 408 27744
331	9193274 31 170413 170413 6.664926690382 6.664926690382 1 104 104 104 10816
332	9193305 58 172609 172614 6.84426574409 6.84426574409 2 84 84 168 14112
333	9193363 58 172609 172614 6.84426574409 6.84426574409 2 84 84 168 14112
334	9193421 247 174160 610236 6.955433001757 13.04839861814 8 68 104 580 43184
335	9193668 122 176494 610952 7.069286243734 13.05582973347 4 68 68 272 18496
336	9193790 183 177023 468279 7.079001153429 11.089084010721 6 68 68 408 27744
337	9193973 209 191641 361709 7.433699094997 9.962949314304 7 68 68 476 32368
338	9194182 153 194998 613408 7.484875914218 13.211003525743 5 84 84 420 35280
339	9194335 84 203146 554895 7.551178234935 12.552496465674 2 0.002364732631 0.00368296337 0.006047696001 1.9156179600878e-005
340	9194419 59 203146 554895 7.551178234935 12.552496465674 2 3 7 10 58
341	9194478 60 204007 204012 7.602763370378 7.602763370378 2 84 84 168 14112
342	9194538 60 204007 204012 7.602763370378 7.602763370378 2 84 84 168 14112
343	9194598 59 204014 560486 7.602763370378 12.604987889201 2 3 7 10 58
344	9194657 118 204105 301228 7.612190466832 9.231096000423 4 68 104 308 24688
345	9194775 59 204759 561490 7.626288793008 12.623563696397 2 4 9 13 97
346	9194834 42 204759 204759 7.626288793008 7.626288793008 1 0.002725096611 0.002725096611 0.002725096611 7.4261515392837e-006
347	9194876 59 204759 561490 7.626288793008 12.623563696397 2 4 8 12 80
348	9194935 62 212155 677631 7.767914723527 14.645871348851 2 68 104 172 15440
349	9194997 487 216130 684598 7.859353797925 14.926817653597 16 48 84 1272 103392
350	9195484 275 217731 591202 7.881095069132 12.862361686979 9 68 104 684 54000
351	9195759 29 221093 221093 7.928241768795 7.928241768795 1 3 3 3 9
352	9195788 119 222627 686861 8.022566824965 15.038416324845 4 1 4 11 37
353	9195907 150 251261 379945 8.474200747675 10.18310646095 5 68 68 340 23120
354	9196057 31 253208 253208 8.542137171402 8.542137171402 1 104 104 104 10816
355	9196088 59 255652 565960 8.650679304422 12.650350279488 2 1 4 5 17
356	9196147 120 263615 678762 8.78859871211 14.65650278165 4 48 84 264 18720
357	9196267 60 272602 272607 8.857945619849 8.857945619849 2 84 84 168 14112
358	9196327 60 272602 272607 8.857945619849 8.857945619849 2 84 84 168 14112
359	9196387 29 273773 273773 8.867198251729 8.867198251729 1 1 1 1 1
360	9196416 92 318279 588246 9.454780835125 12.846608642858 3 84 84 252 21168
361	9196508 29 323080 323080 9.539354789187 9.539354789187 1 1 1 1 1
362	9196537 60 324190 324195 9.544883177383 9.544883177383 2 84 84 168 14112
363	9196597 60 324190 324195 9.544883177383 9.544883177383 2 84 84 168 14112
364	9196657 275 331169 603933 9.615487954778 12.979933294557 9 68 68 612 41616
365	9196932 122 357722 472932 9.927840580274 11.152926506304 4 68 68 272 18496
366	9197054 61 375546 400660 10.14534855041 10.457850001461 2 68 68 136 9248
367	9197115 93 403343 511246 10.492615205442 12.063776813567 3 68 68 204 13872
368	9197208 31 405049 405049 10.532840429112 10.532840429112 1 84 84 84 7056
369	9197239 123 410691 631888 10.558430099262 13.421603749502 4 84 84 336 28224
370	9197362 60 440758 654422 10.843088175648 13.839427281502 2 2 4 6 20
371	9197422 62 441342 441347 10.847251737257 10.847251737257 2 84 84 168 14112
372	9197484 62 441342 441347 10.847251737257 10.847251737257 2 84 84 168 14112
373	9197546 30 442694 442694 10.863655639007 10.863655639007 1 1 1 1 1
374	9197576 62 481173 481178 11.423654796788 11.423654796788 2 84 84 168 14112
375	9197638 62 481173 481178 11.423654796788 11.423654796788 2 84 84 168 14112
376	9197700 62 552289 627421 12.533985895472 13.397962703092 2 84 84 168 14112
377	9197762 62 561483 561488 12.623563696397 12.623563696397 2 84 84 168 14112
378	9197824 62 561483 561488 12.623563696397 12.623563696397 2 84 84 168 14112
379	9197886 30 592532 592532 12.879457024859 12.879457024859 1 1 1 1 1
380	9197916 61 612576 688947 13.073601518838 15.073582351354 2 9 10 19 181
381	9197977 30 613082 613082 13.089698514547 13.089698514547 1 5 5 5 25
382	9198007 29 622287 622287 13.37058995831 13.37058995831 1 7 7 7 49
383	9198036 123 633625 673316 13.436857614431 14.531780298309 4 84 84 336 28224
384	9198159 31 640904 640904 13.500044236244 13.500044236244 1 10 10 10 100
385	9198190 43 640904 640904 13.500044236244 13.500044236244 1 0.020067064842 0.020067064842 0.020067064842 0.00040268709137303
386	9198233 31 640904 640904 13.500044236244 13.500044236244 1 10 10 10 100
387	9198264 62 647959 647964 13.645894115092 13.645894115092 2 84 84 168 14112
388	9198326 62 647959 647964 13.645894115092 13.645894115092 2 84 84 168 14112
389	9198388 31 647966 647966 13.645894115092 13.645894115092 1 10 10 10 100
390	9198419 31 647966 647966 13.645894115092 13.645894115092 1 10 10 10 100
391	9198450 62 669174 669179 14.384381708223 14.384381708223 2 84 84 168 14112
392	9198512 62 669174 669179 14.384381708223 14.384381708223 2 84 84 168 14112
393	9198574 30 686861 686861 15.038416324845 15.038416324845 1 1 1 1 1
