file 18549286 1608822367                                        
version 2
run General-3-20201224-23:04:37-14736
attr configname General
attr datetime 20201224-23:04:37
attr experiment General
attr inifile multi_test_real.ini
attr iterationvars "$pathlosstype=\"LogNormalShadowing\""
attr iterationvarsf pathlosstype=LogNormalShadowing-
attr measurement "$pathlosstype=\"LogNormalShadowing\""
attr network myuav.UAVNetwork_Multi
attr processid 14736
attr repetition 0
attr replication #0
attr resultdir results
attr runnumber 3
attr seedset 3
itervar pathlosstype "\"LogNormalShadowing\""
param *.configurator.addStaticRoutes false
param **.arp.typename "\"GlobalArp\""
param **.basicHosts[*].forwarding false
param **.basicHosts[*].multicastForwarding false
param **.hostRouters[*].forwarding true
param **.hostRouters[*].multicastForwarding true
param *.numHosts 30
param *.configurator.config "xmldoc(\"multi_test.xml\")"
param *.configurator.dumpAddresses true
param *.configurator.dumpTopology true
param *.configurator.dumpLinks true
param *.configurator.dumpRoutes true
param *.configurator.dumpConfig "\"multi_test_dump.xml\""
param *.visualizer.osgVisualizer.typename "\"IntegratedOsgVisualizer\""
param *.visualizer.osgVisualizer.sceneVisualizer.clearColor "\"skyblue\""
param *.visualizer.osgVisualizer.sceneVisualizer.sceneImage "\"showcases/desert\""
param *.visualizer.osgVisualizer.sceneVisualizer.sceneImageSize 2000m
param *.visualizer.osgVisualizer.sceneVisualizer.axisLength 500m
param *.visualizer.osgVisualizer.sceneVisualizer.sceneMinX 0m
param *.visualizer.osgVisualizer.sceneVisualizer.sceneMinY 0m
param *.visualizer.osgVisualizer.sceneVisualizer.sceneMinZ 0m
param *.visualizer.osgVisualizer.sceneVisualizer.sceneMaxX 2000m
param *.visualizer.osgVisualizer.sceneVisualizer.sceneMaxY 2000m
param *.visualizer.osgVisualizer.sceneVisualizer.sceneMaxZ 1000m
param *.visualizer.*.networkRouteVisualizer.displayRoutes true
param *.visualizer.*.networkRouteVisualizer.packetFilter "\"ping*\""
param *.visualizer.*.networkRouteVisualizer.lineWidth 10
param *.visualizer.*.networkRouteVisualizer.lineShift 0
param *.visualizer.*.mobilityVisualizer.displayMovementTrails true
param *.visualizer.*.mobilityVisualizer.animationSpeed 1
param *.hostRouters[*].wlan[0].typename "\"WirelessInterface\""
param *.basicHosts[*].wlan[0].typename "\"WirelessInterface\""
param *.hostRouters[*].wlan[0].mac.typename "\"CsmaCaMac\""
param *.hostRouters[*].wlan[0].mac.ackTimeout 300us
param *.basicHosts[*].wlan[0].mac.typename "\"CsmaCaMac\""
param *.basicHosts[*].wlan[0].mac.ackTimeout 300us
param **.wlan[*].queue.typename "\"DropTailQueue\""
param *.hostRouters[*].wlan[0].mac.maxQueueSize 20000
param *.basicHosts[*].wlan[0].mac.maxQueueSize 10000
param *.radioMedium.typename "\"ApskScalarRadioMedium\""
param *.radioMedium.backgroundNoise.power -90dBm
param *.radioMedium.mediumLimitCache.carrierFrequency 2GHz
param *.hostRouters[*].wlan[0].radio.typename "\"ApskScalarRadio\""
param *.hostRouters[*].wlan[0].radio.carrierFrequency 2GHz
param *.basicHosts[*].wlan[0].radio.typename "\"ApskScalarRadio\""
param *.basicHosts[*].wlan[0].radio.carrierFrequency 2GHz
param **.ignorePartialInterference true
param *.hostRouters[*].wlan[0].radio.bandwidth 10MHz
param *.hostRouters[*].wlan[0].radio.transmitter.preambleDuration 10us
param *.hostRouters[*].wlan[0].radio.transmitter.headerLength 8b
param *.basicHosts[*].wlan[0].radio.bandwidth 10MHz
param *.basicHosts[*].wlan[0].radio.transmitter.preambleDuration 10us
param *.basicHosts[*].wlan[0].radio.transmitter.headerLength 8b
param *.hostRouters[*].wlan[0].radio.receiver.sensitivity -85dBm
param *.hostRouters[*].wlan[0].radio.receiver.energyDetection -85dBm
param *.hostRouters[*].wlan[0].radio.receiver.snirThreshold 4dB
param *.basicHosts[*].wlan[0].radio.receiver.sensitivity -85dBm
param *.basicHosts[*].wlan[0].radio.receiver.energyDetection -85dBm
param *.basicHosts[*].wlan[0].radio.receiver.snirThreshold 4dB
param **.hostRouters[*].**.bitrate 1Mbps
param **.basicHosts[*].**.bitrate 1Mbps
param **.hostRouters[*].wlan[*].radio.transmitter.power 15mW
param **.basicHosts[*].wlan[*].radio.transmitter.power 5mW
param *.radioMedium.pathLoss.typename "\"LogNormalShadowing\""
param *.physicalEnvironment.coordinateSystemModule "\"coordinateSystem\""
param *.*.mobility.coordinateSystemModule "\"coordinateSystem\""
param *.physicalEnvironment.config "xmldoc(\"obstacles.xml\")"
param *.radioMedium.obstacleLoss.typename "\"DielectricObstacleLoss\""
param **.hostRouters[*].app[*].typename "\"PingApp\""
param **.basicHosts[*].app[*].typename "\"PingApp\""
param *.hostRouters[*].numApps 1
param *.basicHosts[*].numApps 1
param **.basicHosts[*].app[*].count 1
param **.basicHosts[*].app[*].continuous true
param **.hostRouters[*].app[*].count 1
param **.hostRouters[*].app[*].continuous true
param **.hostRouters[0].app[*].destAddr "\"hostRouters[1] hostRouters[2] hostRouters[3] hostRouters[4]\""
param **.hostRouters[1].app[*].destAddr "\"hostRouters[0] hostRouters[2] hostRouters[3] hostRouters[4]\""
param **.hostRouters[2].app[*].destAddr "\"hostRouters[0] hostRouters[1] hostRouters[3] hostRouters[4]\""
param **.hostRouters[3].app[*].destAddr "\"hostRouters[0] hostRouters[1] hostRouters[2] hostRouters[4]\""
param **.hostRouters[4].app[*].destAddr "\"hostRouters[0] hostRouters[1] hostRouters[2] hostRouters[3]\""
param **.hostRouters[*].app[*].startTime uniform(5s,6s)
param **.hostRouters[*].app[*].printPing true
param **.basicHosts[*].app[*].destAddr "\"*\""
param **.basicHosts[*].app[*].startTime uniform(3s,4s)
param **.basicHosts[*].app[*].hopLimit 1
param **.basicHosts[*].app[*].printPing true
param **.hostRouters[*].mobility.typename "\"MassMobility\""
param **.hostRouters[*].mobility.initFromDisplayString false
param **.basicHosts[*].mobility.typename "\"MassMobility\""
param **.basicHosts[*].mobility.initFromDisplayString false
param **.hostRouters[*].osgModel "\"3d/drone.ive.80.scale.0,0,90.rot\""
param **.basicHosts[*].osgModel "\"3d/drone.ive.10.scale.0,0,90.rot\""
param **.hostRouters[*].mobility.initialMovementHeading "uniform(0deg, 360deg)"
param **.hostRouters[*].mobility.initialMovementElevation "uniform(-90deg, 90deg)"
param **.hostRouters[*].mobility.rotationAxisAngle uniform(-10deg,10deg)
param **.hostRouters[*].mobility.faceForward false
param **.basicHosts[*].mobility.initialMovementHeading "uniform(0deg, 360deg)"
param **.basicHosts[*].mobility.initialMovementElevation "uniform(-90deg, 90deg)"
param **.basicHosts[*].mobility.rotationAxisAngle uniform(-10deg,10deg)
param **.basicHosts[*].mobility.faceForward false
param **.hostRouters[*].mobility.speed truncnormal(50mps,8mps)
param **.hostRouters[*].mobility.changeInterval "truncnormal(2s, 1s)"
param **.hostRouters[*].mobility.angleDelta "normal(-20deg, 20deg)"
param **.basicHosts[*].mobility.speed "truncnormal(20mps, 4mps)"
param **.basicHosts[*].mobility.changeInterval "truncnormal(3s, 1s)"
param **.basicHosts[*].mobility.angleDelta "normal(-10deg, 10deg)"
param **.basicHosts[*].mobility.initialZ 200m
param **.basicHosts[*].mobility.constraintAreaMinZ 100m
param **.basicHosts[*].mobility.constraintAreaMaxZ 300m
param **.hostRouters[0].mobility.initialX 700m
param **.hostRouters[0].mobility.initialY 1000m
param **.hostRouters[1].mobility.initialX 1500m
param **.hostRouters[1].mobility.initialY 500m
param **.hostRouters[2].mobility.initialX 1500m
param **.hostRouters[2].mobility.initialY 1200m
param **.hostRouters[3].mobility.initialX 300m
param **.hostRouters[3].mobility.initialY 600m
param **.hostRouters[4].mobility.initialX 1000m
param **.hostRouters[4].mobility.initialY 1000m
param **.basicHosts[*].mobility.constraintAreaMinX 200m
param **.basicHosts[*].mobility.constraintAreaMaxX 1300m
param **.basicHosts[*].mobility.constraintAreaMinY 200m
param **.basicHosts[*].mobility.constraintAreaMaxY 1300m
param **.hostRouters[0].mobility.getOthersPosition true
param **.hostRouters[0].mobility.basicNodeNum 30
param **.hostRouters[0].mobility.routerNodeNum 5

vector 0 UAVNetwork_Multi.basicHosts[0].wlan[0].radio radioMode:vector ETV
attr interpolationmode sample-hold
attr source radioModeChanged
attr title "Radio mode, vector"
vector 1 UAVNetwork_Multi.basicHosts[1].wlan[0].radio radioMode:vector ETV
attr interpolationmode sample-hold
attr source radioModeChanged
attr title "Radio mode, vector"
vector 2 UAVNetwork_Multi.basicHosts[2].wlan[0].radio radioMode:vector ETV
attr interpolationmode sample-hold
attr source radioModeChanged
attr title "Radio mode, vector"
vector 3 UAVNetwork_Multi.basicHosts[3].wlan[0].radio radioMode:vector ETV
attr interpolationmode sample-hold
attr source radioModeChanged
attr title "Radio mode, vector"
vector 4 UAVNetwork_Multi.basicHosts[4].wlan[0].radio radioMode:vector ETV
attr interpolationmode sample-hold
attr source radioModeChanged
attr title "Radio mode, vector"
vector 5 UAVNetwork_Multi.basicHosts[5].wlan[0].radio radioMode:vector ETV
attr interpolationmode sample-hold
attr source radioModeChanged
attr title "Radio mode, vector"
vector 6 UAVNetwork_Multi.basicHosts[6].wlan[0].radio radioMode:vector ETV
attr interpolationmode sample-hold
attr source radioModeChanged
attr title "Radio mode, vector"
vector 7 UAVNetwork_Multi.basicHosts[7].wlan[0].radio radioMode:vector ETV
attr interpolationmode sample-hold
attr source radioModeChanged
attr title "Radio mode, vector"
vector 8 UAVNetwork_Multi.basicHosts[8].wlan[0].radio radioMode:vector ETV
attr interpolationmode sample-hold
attr source radioModeChanged
attr title "Radio mode, vector"
vector 9 UAVNetwork_Multi.basicHosts[9].wlan[0].radio radioMode:vector ETV
attr interpolationmode sample-hold
attr source radioModeChanged
attr title "Radio mode, vector"
vector 10 UAVNetwork_Multi.basicHosts[10].wlan[0].radio radioMode:vector ETV
attr interpolationmode sample-hold
attr source radioModeChanged
attr title "Radio mode, vector"
vector 11 UAVNetwork_Multi.basicHosts[11].wlan[0].radio radioMode:vector ETV
attr interpolationmode sample-hold
attr source radioModeChanged
attr title "Radio mode, vector"
vector 12 UAVNetwork_Multi.basicHosts[12].wlan[0].radio radioMode:vector ETV
attr interpolationmode sample-hold
attr source radioModeChanged
attr title "Radio mode, vector"
vector 13 UAVNetwork_Multi.basicHosts[13].wlan[0].radio radioMode:vector ETV
attr interpolationmode sample-hold
attr source radioModeChanged
attr title "Radio mode, vector"
vector 14 UAVNetwork_Multi.basicHosts[14].wlan[0].radio radioMode:vector ETV
attr interpolationmode sample-hold
attr source radioModeChanged
attr title "Radio mode, vector"
vector 15 UAVNetwork_Multi.basicHosts[15].wlan[0].radio radioMode:vector ETV
attr interpolationmode sample-hold
attr source radioModeChanged
attr title "Radio mode, vector"
vector 16 UAVNetwork_Multi.basicHosts[16].wlan[0].radio radioMode:vector ETV
attr interpolationmode sample-hold
attr source radioModeChanged
attr title "Radio mode, vector"
vector 17 UAVNetwork_Multi.basicHosts[17].wlan[0].radio radioMode:vector ETV
attr interpolationmode sample-hold
attr source radioModeChanged
attr title "Radio mode, vector"
vector 18 UAVNetwork_Multi.basicHosts[18].wlan[0].radio radioMode:vector ETV
attr interpolationmode sample-hold
attr source radioModeChanged
attr title "Radio mode, vector"
vector 19 UAVNetwork_Multi.basicHosts[19].wlan[0].radio radioMode:vector ETV
attr interpolationmode sample-hold
attr source radioModeChanged
attr title "Radio mode, vector"
vector 20 UAVNetwork_Multi.basicHosts[20].wlan[0].radio radioMode:vector ETV
attr interpolationmode sample-hold
attr source radioModeChanged
attr title "Radio mode, vector"
vector 21 UAVNetwork_Multi.basicHosts[21].wlan[0].radio radioMode:vector ETV
attr interpolationmode sample-hold
attr source radioModeChanged
attr title "Radio mode, vector"
vector 22 UAVNetwork_Multi.basicHosts[22].wlan[0].radio radioMode:vector ETV
attr interpolationmode sample-hold
attr source radioModeChanged
attr title "Radio mode, vector"
vector 23 UAVNetwork_Multi.basicHosts[23].wlan[0].radio radioMode:vector ETV
attr interpolationmode sample-hold
attr source radioModeChanged
attr title "Radio mode, vector"
vector 24 UAVNetwork_Multi.basicHosts[24].wlan[0].radio radioMode:vector ETV
attr interpolationmode sample-hold
attr source radioModeChanged
attr title "Radio mode, vector"
vector 25 UAVNetwork_Multi.basicHosts[25].wlan[0].radio radioMode:vector ETV
attr interpolationmode sample-hold
attr source radioModeChanged
attr title "Radio mode, vector"
vector 26 UAVNetwork_Multi.basicHosts[26].wlan[0].radio radioMode:vector ETV
attr interpolationmode sample-hold
attr source radioModeChanged
attr title "Radio mode, vector"
vector 27 UAVNetwork_Multi.basicHosts[27].wlan[0].radio radioMode:vector ETV
attr interpolationmode sample-hold
attr source radioModeChanged
attr title "Radio mode, vector"
vector 28 UAVNetwork_Multi.basicHosts[28].wlan[0].radio radioMode:vector ETV
attr interpolationmode sample-hold
attr source radioModeChanged
attr title "Radio mode, vector"
vector 29 UAVNetwork_Multi.basicHosts[29].wlan[0].radio radioMode:vector ETV
attr interpolationmode sample-hold
attr source radioModeChanged
attr title "Radio mode, vector"
vector 30 UAVNetwork_Multi.hostRouters[0].wlan[0].radio radioMode:vector ETV
attr interpolationmode sample-hold
attr source radioModeChanged
attr title "Radio mode, vector"
vector 31 UAVNetwork_Multi.hostRouters[1].wlan[0].radio radioMode:vector ETV
attr interpolationmode sample-hold
attr source radioModeChanged
attr title "Radio mode, vector"
vector 32 UAVNetwork_Multi.hostRouters[2].wlan[0].radio radioMode:vector ETV
attr interpolationmode sample-hold
attr source radioModeChanged
attr title "Radio mode, vector"
vector 33 UAVNetwork_Multi.hostRouters[3].wlan[0].radio radioMode:vector ETV
attr interpolationmode sample-hold
attr source radioModeChanged
attr title "Radio mode, vector"
vector 34 UAVNetwork_Multi.hostRouters[4].wlan[0].radio radioMode:vector ETV
attr interpolationmode sample-hold
attr source radioModeChanged
attr title "Radio mode, vector"
vector 35 UAVNetwork_Multi.basicHosts[0].wlan[0].radio receptionState:vector ETV
attr interpolationmode sample-hold
attr source receptionStateChanged
attr title "Radio reception state, vector"
vector 36 UAVNetwork_Multi.basicHosts[1].wlan[0].radio receptionState:vector ETV
attr interpolationmode sample-hold
attr source receptionStateChanged
attr title "Radio reception state, vector"
vector 37 UAVNetwork_Multi.basicHosts[2].wlan[0].radio receptionState:vector ETV
attr interpolationmode sample-hold
attr source receptionStateChanged
attr title "Radio reception state, vector"
vector 38 UAVNetwork_Multi.basicHosts[3].wlan[0].radio receptionState:vector ETV
attr interpolationmode sample-hold
attr source receptionStateChanged
attr title "Radio reception state, vector"
vector 39 UAVNetwork_Multi.basicHosts[4].wlan[0].radio receptionState:vector ETV
attr interpolationmode sample-hold
attr source receptionStateChanged
attr title "Radio reception state, vector"
vector 40 UAVNetwork_Multi.basicHosts[5].wlan[0].radio receptionState:vector ETV
attr interpolationmode sample-hold
attr source receptionStateChanged
attr title "Radio reception state, vector"
vector 41 UAVNetwork_Multi.basicHosts[6].wlan[0].radio receptionState:vector ETV
attr interpolationmode sample-hold
attr source receptionStateChanged
attr title "Radio reception state, vector"
vector 42 UAVNetwork_Multi.basicHosts[7].wlan[0].radio receptionState:vector ETV
attr interpolationmode sample-hold
attr source receptionStateChanged
attr title "Radio reception state, vector"
vector 43 UAVNetwork_Multi.basicHosts[8].wlan[0].radio receptionState:vector ETV
attr interpolationmode sample-hold
attr source receptionStateChanged
attr title "Radio reception state, vector"
vector 44 UAVNetwork_Multi.basicHosts[9].wlan[0].radio receptionState:vector ETV
attr interpolationmode sample-hold
attr source receptionStateChanged
attr title "Radio reception state, vector"
vector 45 UAVNetwork_Multi.basicHosts[10].wlan[0].radio receptionState:vector ETV
attr interpolationmode sample-hold
attr source receptionStateChanged
attr title "Radio reception state, vector"
vector 46 UAVNetwork_Multi.basicHosts[11].wlan[0].radio receptionState:vector ETV
attr interpolationmode sample-hold
attr source receptionStateChanged
attr title "Radio reception state, vector"
vector 47 UAVNetwork_Multi.basicHosts[12].wlan[0].radio receptionState:vector ETV
attr interpolationmode sample-hold
attr source receptionStateChanged
attr title "Radio reception state, vector"
vector 48 UAVNetwork_Multi.basicHosts[13].wlan[0].radio receptionState:vector ETV
attr interpolationmode sample-hold
attr source receptionStateChanged
attr title "Radio reception state, vector"
vector 49 UAVNetwork_Multi.basicHosts[14].wlan[0].radio receptionState:vector ETV
attr interpolationmode sample-hold
attr source receptionStateChanged
attr title "Radio reception state, vector"
vector 50 UAVNetwork_Multi.basicHosts[15].wlan[0].radio receptionState:vector ETV
attr interpolationmode sample-hold
attr source receptionStateChanged
attr title "Radio reception state, vector"
vector 51 UAVNetwork_Multi.basicHosts[16].wlan[0].radio receptionState:vector ETV
attr interpolationmode sample-hold
attr source receptionStateChanged
attr title "Radio reception state, vector"
vector 52 UAVNetwork_Multi.basicHosts[17].wlan[0].radio receptionState:vector ETV
attr interpolationmode sample-hold
attr source receptionStateChanged
attr title "Radio reception state, vector"
vector 53 UAVNetwork_Multi.basicHosts[18].wlan[0].radio receptionState:vector ETV
attr interpolationmode sample-hold
attr source receptionStateChanged
attr title "Radio reception state, vector"
vector 54 UAVNetwork_Multi.basicHosts[19].wlan[0].radio receptionState:vector ETV
attr interpolationmode sample-hold
attr source receptionStateChanged
attr title "Radio reception state, vector"
vector 55 UAVNetwork_Multi.basicHosts[20].wlan[0].radio receptionState:vector ETV
attr interpolationmode sample-hold
attr source receptionStateChanged
attr title "Radio reception state, vector"
vector 56 UAVNetwork_Multi.basicHosts[21].wlan[0].radio receptionState:vector ETV
attr interpolationmode sample-hold
attr source receptionStateChanged
attr title "Radio reception state, vector"
vector 57 UAVNetwork_Multi.basicHosts[22].wlan[0].radio receptionState:vector ETV
attr interpolationmode sample-hold
attr source receptionStateChanged
attr title "Radio reception state, vector"
vector 58 UAVNetwork_Multi.basicHosts[23].wlan[0].radio receptionState:vector ETV
attr interpolationmode sample-hold
attr source receptionStateChanged
attr title "Radio reception state, vector"
vector 59 UAVNetwork_Multi.basicHosts[24].wlan[0].radio receptionState:vector ETV
attr interpolationmode sample-hold
attr source receptionStateChanged
attr title "Radio reception state, vector"
vector 60 UAVNetwork_Multi.basicHosts[25].wlan[0].radio receptionState:vector ETV
attr interpolationmode sample-hold
attr source receptionStateChanged
attr title "Radio reception state, vector"
vector 61 UAVNetwork_Multi.basicHosts[26].wlan[0].radio receptionState:vector ETV
attr interpolationmode sample-hold
attr source receptionStateChanged
attr title "Radio reception state, vector"
vector 62 UAVNetwork_Multi.basicHosts[27].wlan[0].radio receptionState:vector ETV
attr interpolationmode sample-hold
attr source receptionStateChanged
attr title "Radio reception state, vector"
vector 63 UAVNetwork_Multi.basicHosts[28].wlan[0].radio receptionState:vector ETV
attr interpolationmode sample-hold
attr source receptionStateChanged
attr title "Radio reception state, vector"
vector 64 UAVNetwork_Multi.basicHosts[29].wlan[0].radio receptionState:vector ETV
attr interpolationmode sample-hold
attr source receptionStateChanged
attr title "Radio reception state, vector"
vector 65 UAVNetwork_Multi.hostRouters[0].wlan[0].radio receptionState:vector ETV
attr interpolationmode sample-hold
attr source receptionStateChanged
attr title "Radio reception state, vector"
vector 66 UAVNetwork_Multi.hostRouters[1].wlan[0].radio receptionState:vector ETV
attr interpolationmode sample-hold
attr source receptionStateChanged
attr title "Radio reception state, vector"
vector 67 UAVNetwork_Multi.hostRouters[2].wlan[0].radio receptionState:vector ETV
attr interpolationmode sample-hold
attr source receptionStateChanged
attr title "Radio reception state, vector"
vector 68 UAVNetwork_Multi.hostRouters[3].wlan[0].radio receptionState:vector ETV
attr interpolationmode sample-hold
attr source receptionStateChanged
attr title "Radio reception state, vector"
vector 69 UAVNetwork_Multi.hostRouters[4].wlan[0].radio receptionState:vector ETV
attr interpolationmode sample-hold
attr source receptionStateChanged
attr title "Radio reception state, vector"
vector 70 UAVNetwork_Multi.hostRouters[2].wlan[0].radio transmissionState:vector ETV
attr interpolationmode sample-hold
attr source transmissionStateChanged
attr title "Radio transmission state, vector"
vector 71 UAVNetwork_Multi.hostRouters[3].wlan[0].radio transmissionState:vector ETV
attr interpolationmode sample-hold
attr source transmissionStateChanged
attr title "Radio transmission state, vector"
vector 72 UAVNetwork_Multi.basicHosts[26].wlan[0].mac packetDropNotAddressedToUs:vector(packetBytes) ETV
attr interpolationmode none
attr source packetDropReasonIsNotAddressedToUs(packetDropped)
attr title "packet drop: not addressed to us, vector(packetBytes)"
vector 73 UAVNetwork_Multi.basicHosts[9].wlan[0].mac packetDropNotAddressedToUs:vector(packetBytes) ETV
attr interpolationmode none
attr source packetDropReasonIsNotAddressedToUs(packetDropped)
attr title "packet drop: not addressed to us, vector(packetBytes)"
vector 74 UAVNetwork_Multi.hostRouters[4].wlan[0].mac packetDropIncorrectlyReceived:vector(packetBytes) ETV
attr interpolationmode none
attr source packetDropReasonIsIncorrectlyReceived(packetDropped)
attr title "packet drop: incorrectly received, vector(packetBytes)"
vector 75 UAVNetwork_Multi.basicHosts[28].wlan[0].mac packetDropNotAddressedToUs:vector(packetBytes) ETV
attr interpolationmode none
attr source packetDropReasonIsNotAddressedToUs(packetDropped)
attr title "packet drop: not addressed to us, vector(packetBytes)"
vector 76 UAVNetwork_Multi.basicHosts[16].wlan[0].mac packetDropNotAddressedToUs:vector(packetBytes) ETV
attr interpolationmode none
attr source packetDropReasonIsNotAddressedToUs(packetDropped)
attr title "packet drop: not addressed to us, vector(packetBytes)"
vector 77 UAVNetwork_Multi.basicHosts[17].wlan[0].mac packetDropNotAddressedToUs:vector(packetBytes) ETV
attr interpolationmode none
attr source packetDropReasonIsNotAddressedToUs(packetDropped)
attr title "packet drop: not addressed to us, vector(packetBytes)"
vector 78 UAVNetwork_Multi.basicHosts[19].wlan[0].mac packetDropNotAddressedToUs:vector(packetBytes) ETV
attr interpolationmode none
attr source packetDropReasonIsNotAddressedToUs(packetDropped)
attr title "packet drop: not addressed to us, vector(packetBytes)"
vector 79 UAVNetwork_Multi.basicHosts[6].wlan[0].mac packetDropNotAddressedToUs:vector(packetBytes) ETV
attr interpolationmode none
attr source packetDropReasonIsNotAddressedToUs(packetDropped)
attr title "packet drop: not addressed to us, vector(packetBytes)"
vector 80 UAVNetwork_Multi.basicHosts[4].wlan[0].mac packetDropNotAddressedToUs:vector(packetBytes) ETV
attr interpolationmode none
attr source packetDropReasonIsNotAddressedToUs(packetDropped)
attr title "packet drop: not addressed to us, vector(packetBytes)"
vector 81 UAVNetwork_Multi.basicHosts[24].wlan[0].mac packetDropNotAddressedToUs:vector(packetBytes) ETV
attr interpolationmode none
attr source packetDropReasonIsNotAddressedToUs(packetDropped)
attr title "packet drop: not addressed to us, vector(packetBytes)"
vector 82 UAVNetwork_Multi.basicHosts[22].wlan[0].mac packetDropNotAddressedToUs:vector(packetBytes) ETV
attr interpolationmode none
attr source packetDropReasonIsNotAddressedToUs(packetDropped)
attr title "packet drop: not addressed to us, vector(packetBytes)"
vector 83 UAVNetwork_Multi.basicHosts[18].wlan[0].mac packetDropNotAddressedToUs:vector(packetBytes) ETV
attr interpolationmode none
attr source packetDropReasonIsNotAddressedToUs(packetDropped)
attr title "packet drop: not addressed to us, vector(packetBytes)"
vector 84 UAVNetwork_Multi.basicHosts[25].wlan[0].mac packetDropNotAddressedToUs:vector(packetBytes) ETV
attr interpolationmode none
attr source packetDropReasonIsNotAddressedToUs(packetDropped)
attr title "packet drop: not addressed to us, vector(packetBytes)"
vector 85 UAVNetwork_Multi.basicHosts[11].wlan[0].mac packetDropNotAddressedToUs:vector(packetBytes) ETV
attr interpolationmode none
attr source packetDropReasonIsNotAddressedToUs(packetDropped)
attr title "packet drop: not addressed to us, vector(packetBytes)"
vector 86 UAVNetwork_Multi.basicHosts[3].wlan[0].mac packetDropNotAddressedToUs:vector(packetBytes) ETV
attr interpolationmode none
attr source packetDropReasonIsNotAddressedToUs(packetDropped)
attr title "packet drop: not addressed to us, vector(packetBytes)"
vector 87 UAVNetwork_Multi.basicHosts[27].wlan[0].mac packetDropNotAddressedToUs:vector(packetBytes) ETV
attr interpolationmode none
attr source packetDropReasonIsNotAddressedToUs(packetDropped)
attr title "packet drop: not addressed to us, vector(packetBytes)"
vector 88 UAVNetwork_Multi.basicHosts[21].wlan[0].mac packetDropNotAddressedToUs:vector(packetBytes) ETV
attr interpolationmode none
attr source packetDropReasonIsNotAddressedToUs(packetDropped)
attr title "packet drop: not addressed to us, vector(packetBytes)"
vector 89 UAVNetwork_Multi.hostRouters[0].wlan[0].mac packetDropNotAddressedToUs:vector(packetBytes) ETV
attr interpolationmode none
attr source packetDropReasonIsNotAddressedToUs(packetDropped)
attr title "packet drop: not addressed to us, vector(packetBytes)"
vector 90 UAVNetwork_Multi.basicHosts[23].wlan[0].mac packetDropNotAddressedToUs:vector(packetBytes) ETV
attr interpolationmode none
attr source packetDropReasonIsNotAddressedToUs(packetDropped)
attr title "packet drop: not addressed to us, vector(packetBytes)"
vector 91 UAVNetwork_Multi.basicHosts[12].wlan[0].mac packetDropNotAddressedToUs:vector(packetBytes) ETV
attr interpolationmode none
attr source packetDropReasonIsNotAddressedToUs(packetDropped)
attr title "packet drop: not addressed to us, vector(packetBytes)"
vector 92 UAVNetwork_Multi.basicHosts[20].wlan[0].mac packetDropNotAddressedToUs:vector(packetBytes) ETV
attr interpolationmode none
attr source packetDropReasonIsNotAddressedToUs(packetDropped)
attr title "packet drop: not addressed to us, vector(packetBytes)"
vector 93 UAVNetwork_Multi.basicHosts[14].wlan[0].mac packetDropIncorrectlyReceived:vector(packetBytes) ETV
attr interpolationmode none
attr source packetDropReasonIsIncorrectlyReceived(packetDropped)
attr title "packet drop: incorrectly received, vector(packetBytes)"
vector 94 UAVNetwork_Multi.basicHosts[15].wlan[0].mac packetDropIncorrectlyReceived:vector(packetBytes) ETV
attr interpolationmode none
attr source packetDropReasonIsIncorrectlyReceived(packetDropped)
attr title "packet drop: incorrectly received, vector(packetBytes)"
vector 95 UAVNetwork_Multi.hostRouters[4].wlan[0].radio transmissionState:vector ETV
attr interpolationmode sample-hold
attr source transmissionStateChanged
attr title "Radio transmission state, vector"
vector 96 UAVNetwork_Multi.basicHosts[5].wlan[0].mac packetDropNotAddressedToUs:vector(packetBytes) ETV
attr interpolationmode none
attr source packetDropReasonIsNotAddressedToUs(packetDropped)
attr title "packet drop: not addressed to us, vector(packetBytes)"
vector 97 UAVNetwork_Multi.basicHosts[8].wlan[0].mac packetDropNotAddressedToUs:vector(packetBytes) ETV
attr interpolationmode none
attr source packetDropReasonIsNotAddressedToUs(packetDropped)
attr title "packet drop: not addressed to us, vector(packetBytes)"
vector 98 UAVNetwork_Multi.basicHosts[2].wlan[0].mac packetDropNotAddressedToUs:vector(packetBytes) ETV
attr interpolationmode none
attr source packetDropReasonIsNotAddressedToUs(packetDropped)
attr title "packet drop: not addressed to us, vector(packetBytes)"
vector 99 UAVNetwork_Multi.basicHosts[1].wlan[0].mac packetDropNotAddressedToUs:vector(packetBytes) ETV
attr interpolationmode none
attr source packetDropReasonIsNotAddressedToUs(packetDropped)
attr title "packet drop: not addressed to us, vector(packetBytes)"
vector 100 UAVNetwork_Multi.basicHosts[10].wlan[0].mac packetDropNotAddressedToUs:vector(packetBytes) ETV
attr interpolationmode none
attr source packetDropReasonIsNotAddressedToUs(packetDropped)
attr title "packet drop: not addressed to us, vector(packetBytes)"
vector 101 UAVNetwork_Multi.basicHosts[0].wlan[0].mac packetDropNotAddressedToUs:vector(packetBytes) ETV
attr interpolationmode none
attr source packetDropReasonIsNotAddressedToUs(packetDropped)
attr title "packet drop: not addressed to us, vector(packetBytes)"
vector 102 UAVNetwork_Multi.hostRouters[2].wlan[0].mac packetDropNotAddressedToUs:vector(packetBytes) ETV
attr interpolationmode none
attr source packetDropReasonIsNotAddressedToUs(packetDropped)
attr title "packet drop: not addressed to us, vector(packetBytes)"
vector 103 UAVNetwork_Multi.basicHosts[13].wlan[0].mac packetDropNotAddressedToUs:vector(packetBytes) ETV
attr interpolationmode none
attr source packetDropReasonIsNotAddressedToUs(packetDropped)
attr title "packet drop: not addressed to us, vector(packetBytes)"
vector 104 UAVNetwork_Multi.basicHosts[7].wlan[0].mac packetDropNotAddressedToUs:vector(packetBytes) ETV
attr interpolationmode none
attr source packetDropReasonIsNotAddressedToUs(packetDropped)
attr title "packet drop: not addressed to us, vector(packetBytes)"
vector 105 UAVNetwork_Multi.basicHosts[29].wlan[0].mac packetDropNotAddressedToUs:vector(packetBytes) ETV
attr interpolationmode none
attr source packetDropReasonIsNotAddressedToUs(packetDropped)
attr title "packet drop: not addressed to us, vector(packetBytes)"
vector 106 UAVNetwork_Multi.basicHosts[14].wlan[0].mac packetDropNotAddressedToUs:vector(packetBytes) ETV
attr interpolationmode none
attr source packetDropReasonIsNotAddressedToUs(packetDropped)
attr title "packet drop: not addressed to us, vector(packetBytes)"
vector 107 UAVNetwork_Multi.hostRouters[1].wlan[0].radio transmissionState:vector ETV
attr interpolationmode sample-hold
attr source transmissionStateChanged
attr title "Radio transmission state, vector"
vector 108 UAVNetwork_Multi.hostRouters[4].wlan[0].mac packetDropNotAddressedToUs:vector(packetBytes) ETV
attr interpolationmode none
attr source packetDropReasonIsNotAddressedToUs(packetDropped)
attr title "packet drop: not addressed to us, vector(packetBytes)"
vector 109 UAVNetwork_Multi.basicHosts[25].wlan[0].mac packetDropIncorrectlyReceived:vector(packetBytes) ETV
attr interpolationmode none
attr source packetDropReasonIsIncorrectlyReceived(packetDropped)
attr title "packet drop: incorrectly received, vector(packetBytes)"
vector 110 UAVNetwork_Multi.basicHosts[20].wlan[0].mac packetDropIncorrectlyReceived:vector(packetBytes) ETV
attr interpolationmode none
attr source packetDropReasonIsIncorrectlyReceived(packetDropped)
attr title "packet drop: incorrectly received, vector(packetBytes)"
vector 111 UAVNetwork_Multi.hostRouters[0].wlan[0].radio transmissionState:vector ETV
attr interpolationmode sample-hold
attr source transmissionStateChanged
attr title "Radio transmission state, vector"
vector 112 UAVNetwork_Multi.hostRouters[3].wlan[0].mac packetDropNotAddressedToUs:vector(packetBytes) ETV
attr interpolationmode none
attr source packetDropReasonIsNotAddressedToUs(packetDropped)
attr title "packet drop: not addressed to us, vector(packetBytes)"
vector 113 UAVNetwork_Multi.hostRouters[2].wlan[0].mac packetDropIncorrectlyReceived:vector(packetBytes) ETV
attr interpolationmode none
attr source packetDropReasonIsIncorrectlyReceived(packetDropped)
attr title "packet drop: incorrectly received, vector(packetBytes)"
vector 114 UAVNetwork_Multi.basicHosts[11].wlan[0].mac packetDropIncorrectlyReceived:vector(packetBytes) ETV
attr interpolationmode none
attr source packetDropReasonIsIncorrectlyReceived(packetDropped)
attr title "packet drop: incorrectly received, vector(packetBytes)"
vector 115 UAVNetwork_Multi.basicHosts[27].wlan[0].mac packetDropIncorrectlyReceived:vector(packetBytes) ETV
attr interpolationmode none
attr source packetDropReasonIsIncorrectlyReceived(packetDropped)
attr title "packet drop: incorrectly received, vector(packetBytes)"
vector 116 UAVNetwork_Multi.hostRouters[0].wlan[0].mac packetDropIncorrectlyReceived:vector(packetBytes) ETV
attr interpolationmode none
attr source packetDropReasonIsIncorrectlyReceived(packetDropped)
attr title "packet drop: incorrectly received, vector(packetBytes)"
vector 117 UAVNetwork_Multi.basicHosts[23].wlan[0].mac packetDropIncorrectlyReceived:vector(packetBytes) ETV
attr interpolationmode none
attr source packetDropReasonIsIncorrectlyReceived(packetDropped)
attr title "packet drop: incorrectly received, vector(packetBytes)"
vector 118 UAVNetwork_Multi.basicHosts[12].wlan[0].mac packetDropIncorrectlyReceived:vector(packetBytes) ETV
attr interpolationmode none
attr source packetDropReasonIsIncorrectlyReceived(packetDropped)
attr title "packet drop: incorrectly received, vector(packetBytes)"
vector 119 UAVNetwork_Multi.basicHosts[13].wlan[0].mac packetDropIncorrectlyReceived:vector(packetBytes) ETV
attr interpolationmode none
attr source packetDropReasonIsIncorrectlyReceived(packetDropped)
attr title "packet drop: incorrectly received, vector(packetBytes)"
vector 120 UAVNetwork_Multi.basicHosts[5].wlan[0].mac packetDropIncorrectlyReceived:vector(packetBytes) ETV
attr interpolationmode none
attr source packetDropReasonIsIncorrectlyReceived(packetDropped)
attr title "packet drop: incorrectly received, vector(packetBytes)"
vector 121 UAVNetwork_Multi.hostRouters[1].wlan[0].mac packetDropIncorrectlyReceived:vector(packetBytes) ETV
attr interpolationmode none
attr source packetDropReasonIsIncorrectlyReceived(packetDropped)
attr title "packet drop: incorrectly received, vector(packetBytes)"
vector 122 UAVNetwork_Multi.hostRouters[1].wlan[0].mac packetDropNotAddressedToUs:vector(packetBytes) ETV
attr interpolationmode none
attr source packetDropReasonIsNotAddressedToUs(packetDropped)
attr title "packet drop: not addressed to us, vector(packetBytes)"
vector 123 UAVNetwork_Multi.basicHosts[15].wlan[0].mac packetDropNotAddressedToUs:vector(packetBytes) ETV
attr interpolationmode none
attr source packetDropReasonIsNotAddressedToUs(packetDropped)
attr title "packet drop: not addressed to us, vector(packetBytes)"
vector 124 UAVNetwork_Multi.basicHosts[10].wlan[0].mac packetDropIncorrectlyReceived:vector(packetBytes) ETV
attr interpolationmode none
attr source packetDropReasonIsIncorrectlyReceived(packetDropped)
attr title "packet drop: incorrectly received, vector(packetBytes)"
vector 125 UAVNetwork_Multi.basicHosts[1].wlan[0].mac packetDropIncorrectlyReceived:vector(packetBytes) ETV
attr interpolationmode none
attr source packetDropReasonIsIncorrectlyReceived(packetDropped)
attr title "packet drop: incorrectly received, vector(packetBytes)"
vector 126 UAVNetwork_Multi.hostRouters[3].wlan[0].mac packetDropRetryLimitReached:vector(packetBytes) ETV
attr interpolationmode none
attr source packetDropReasonIsRetryLimitReached(packetDropped)
attr title "packet drop: retry limit reached, vector(packetBytes)"
vector 127 UAVNetwork_Multi.basicHosts[9].wlan[0].mac packetDropIncorrectlyReceived:vector(packetBytes) ETV
attr interpolationmode none
attr source packetDropReasonIsIncorrectlyReceived(packetDropped)
attr title "packet drop: incorrectly received, vector(packetBytes)"
vector 128 UAVNetwork_Multi.basicHosts[28].wlan[0].mac packetDropIncorrectlyReceived:vector(packetBytes) ETV
attr interpolationmode none
attr source packetDropReasonIsIncorrectlyReceived(packetDropped)
attr title "packet drop: incorrectly received, vector(packetBytes)"
vector 129 UAVNetwork_Multi.basicHosts[16].wlan[0].mac packetDropIncorrectlyReceived:vector(packetBytes) ETV
attr interpolationmode none
attr source packetDropReasonIsIncorrectlyReceived(packetDropped)
attr title "packet drop: incorrectly received, vector(packetBytes)"
vector 130 UAVNetwork_Multi.basicHosts[0].wlan[0].mac packetDropIncorrectlyReceived:vector(packetBytes) ETV
attr interpolationmode none
attr source packetDropReasonIsIncorrectlyReceived(packetDropped)
attr title "packet drop: incorrectly received, vector(packetBytes)"
vector 131 UAVNetwork_Multi.basicHosts[29].wlan[0].mac packetDropIncorrectlyReceived:vector(packetBytes) ETV
attr interpolationmode none
attr source packetDropReasonIsIncorrectlyReceived(packetDropped)
attr title "packet drop: incorrectly received, vector(packetBytes)"
vector 132 UAVNetwork_Multi.hostRouters[3].wlan[0].mac packetDropIncorrectlyReceived:vector(packetBytes) ETV
attr interpolationmode none
attr source packetDropReasonIsIncorrectlyReceived(packetDropped)
attr title "packet drop: incorrectly received, vector(packetBytes)"
vector 133 UAVNetwork_Multi.hostRouters[2].wlan[0].mac packetDropRetryLimitReached:vector(packetBytes) ETV
attr interpolationmode none
attr source packetDropReasonIsRetryLimitReached(packetDropped)
attr title "packet drop: retry limit reached, vector(packetBytes)"
vector 134 UAVNetwork_Multi.basicHosts[26].wlan[0].mac packetDropIncorrectlyReceived:vector(packetBytes) ETV
attr interpolationmode none
attr source packetDropReasonIsIncorrectlyReceived(packetDropped)
attr title "packet drop: incorrectly received, vector(packetBytes)"
vector 135 UAVNetwork_Multi.basicHosts[7].wlan[0].mac packetDropIncorrectlyReceived:vector(packetBytes) ETV
attr interpolationmode none
attr source packetDropReasonIsIncorrectlyReceived(packetDropped)
attr title "packet drop: incorrectly received, vector(packetBytes)"
vector 136 UAVNetwork_Multi.hostRouters[1].wlan[0].mac packetDropRetryLimitReached:vector(packetBytes) ETV
attr interpolationmode none
attr source packetDropReasonIsRetryLimitReached(packetDropped)
attr title "packet drop: retry limit reached, vector(packetBytes)"
vector 137 UAVNetwork_Multi.hostRouters[0].wlan[0].mac packetDropRetryLimitReached:vector(packetBytes) ETV
attr interpolationmode none
attr source packetDropReasonIsRetryLimitReached(packetDropped)
attr title "packet drop: retry limit reached, vector(packetBytes)"
vector 138 UAVNetwork_Multi.hostRouters[4].wlan[0].mac packetDropRetryLimitReached:vector(packetBytes) ETV
attr interpolationmode none
attr source packetDropReasonIsRetryLimitReached(packetDropped)
attr title "packet drop: retry limit reached, vector(packetBytes)"
vector 139 UAVNetwork_Multi.basicHosts[5].app[0] pingTxSeq:vector ETV
attr interpolationmode none
attr title "ping tx seq, vector"
vector 140 UAVNetwork_Multi.basicHosts[5].wlan[0].radio transmissionState:vector ETV
attr interpolationmode sample-hold
attr source transmissionStateChanged
attr title "Radio transmission state, vector"
vector 141 UAVNetwork_Multi.basicHosts[0].app[0] pingTxSeq:vector ETV
attr interpolationmode none
attr title "ping tx seq, vector"
vector 142 UAVNetwork_Multi.basicHosts[0].lo[0].lo rcvdPkFromHl:vector(packetBytes) ETV
attr interpolationmode none
attr source packetReceivedFromUpper
attr title "packets received from higher layer, vector(packetBytes)"
vector 143 UAVNetwork_Multi.basicHosts[0].lo[0].lo passedUpPk:vector(packetBytes) ETV
attr interpolationmode none
attr source packetSentToUpper
attr title "packets passed to higher layer, vector(packetBytes)"
vector 144 UAVNetwork_Multi.basicHosts[0].app[0] pingRxSeq:vector ETV
attr interpolationmode none
attr title "ping rx seq, vector"
vector 145 UAVNetwork_Multi.basicHosts[0].wlan[0].radio transmissionState:vector ETV
attr interpolationmode sample-hold
attr source transmissionStateChanged
attr title "Radio transmission state, vector"
vector 146 UAVNetwork_Multi.basicHosts[8].wlan[0].radio transmissionState:vector ETV
attr interpolationmode sample-hold
attr source transmissionStateChanged
attr title "Radio transmission state, vector"
vector 147 UAVNetwork_Multi.basicHosts[24].wlan[0].radio transmissionState:vector ETV
attr interpolationmode sample-hold
attr source transmissionStateChanged
attr title "Radio transmission state, vector"
vector 148 UAVNetwork_Multi.basicHosts[3].wlan[0].mac packetDropIncorrectlyReceived:vector(packetBytes) ETV
attr interpolationmode none
attr source packetDropReasonIsIncorrectlyReceived(packetDropped)
attr title "packet drop: incorrectly received, vector(packetBytes)"
vector 149 UAVNetwork_Multi.basicHosts[21].wlan[0].mac packetDropIncorrectlyReceived:vector(packetBytes) ETV
attr interpolationmode none
attr source packetDropReasonIsIncorrectlyReceived(packetDropped)
attr title "packet drop: incorrectly received, vector(packetBytes)"
vector 150 UAVNetwork_Multi.basicHosts[18].wlan[0].mac packetDropIncorrectlyReceived:vector(packetBytes) ETV
attr interpolationmode none
attr source packetDropReasonIsIncorrectlyReceived(packetDropped)
attr title "packet drop: incorrectly received, vector(packetBytes)"
vector 151 UAVNetwork_Multi.basicHosts[12].wlan[0].radio transmissionState:vector ETV
attr interpolationmode sample-hold
attr source transmissionStateChanged
attr title "Radio transmission state, vector"
vector 152 UAVNetwork_Multi.basicHosts[9].app[0] pingTxSeq:vector ETV
attr interpolationmode none
attr title "ping tx seq, vector"
vector 153 UAVNetwork_Multi.basicHosts[9].wlan[0].radio transmissionState:vector ETV
attr interpolationmode sample-hold
attr source transmissionStateChanged
attr title "Radio transmission state, vector"
vector 154 UAVNetwork_Multi.basicHosts[2].wlan[0].mac packetDropIncorrectlyReceived:vector(packetBytes) ETV
attr interpolationmode none
attr source packetDropReasonIsIncorrectlyReceived(packetDropped)
attr title "packet drop: incorrectly received, vector(packetBytes)"
vector 155 UAVNetwork_Multi.basicHosts[8].wlan[0].mac packetDropIncorrectlyReceived:vector(packetBytes) ETV
attr interpolationmode none
attr source packetDropReasonIsIncorrectlyReceived(packetDropped)
attr title "packet drop: incorrectly received, vector(packetBytes)"
vector 156 UAVNetwork_Multi.basicHosts[24].wlan[0].mac packetDropIncorrectlyReceived:vector(packetBytes) ETV
attr interpolationmode none
attr source packetDropReasonIsIncorrectlyReceived(packetDropped)
attr title "packet drop: incorrectly received, vector(packetBytes)"
vector 157 UAVNetwork_Multi.basicHosts[28].wlan[0].radio transmissionState:vector ETV
attr interpolationmode sample-hold
attr source transmissionStateChanged
attr title "Radio transmission state, vector"
vector 158 UAVNetwork_Multi.basicHosts[22].wlan[0].mac packetDropIncorrectlyReceived:vector(packetBytes) ETV
attr interpolationmode none
attr source packetDropReasonIsIncorrectlyReceived(packetDropped)
attr title "packet drop: incorrectly received, vector(packetBytes)"
vector 159 UAVNetwork_Multi.basicHosts[23].wlan[0].radio transmissionState:vector ETV
attr interpolationmode sample-hold
attr source transmissionStateChanged
attr title "Radio transmission state, vector"
vector 160 UAVNetwork_Multi.basicHosts[13].wlan[0].radio transmissionState:vector ETV
attr interpolationmode sample-hold
attr source transmissionStateChanged
attr title "Radio transmission state, vector"
vector 161 UAVNetwork_Multi.basicHosts[26].wlan[0].radio transmissionState:vector ETV
attr interpolationmode sample-hold
attr source transmissionStateChanged
attr title "Radio transmission state, vector"
vector 162 UAVNetwork_Multi.basicHosts[16].wlan[0].radio transmissionState:vector ETV
attr interpolationmode sample-hold
attr source transmissionStateChanged
attr title "Radio transmission state, vector"
vector 163 UAVNetwork_Multi.basicHosts[27].wlan[0].radio transmissionState:vector ETV
attr interpolationmode sample-hold
attr source transmissionStateChanged
attr title "Radio transmission state, vector"
vector 164 UAVNetwork_Multi.basicHosts[4].wlan[0].mac packetDropIncorrectlyReceived:vector(packetBytes) ETV
attr interpolationmode none
attr source packetDropReasonIsIncorrectlyReceived(packetDropped)
attr title "packet drop: incorrectly received, vector(packetBytes)"
vector 165 UAVNetwork_Multi.basicHosts[17].wlan[0].mac packetDropIncorrectlyReceived:vector(packetBytes) ETV
attr interpolationmode none
attr source packetDropReasonIsIncorrectlyReceived(packetDropped)
attr title "packet drop: incorrectly received, vector(packetBytes)"
vector 166 UAVNetwork_Multi.basicHosts[20].wlan[0].radio transmissionState:vector ETV
attr interpolationmode sample-hold
attr source transmissionStateChanged
attr title "Radio transmission state, vector"
vector 167 UAVNetwork_Multi.basicHosts[1].wlan[0].radio transmissionState:vector ETV
attr interpolationmode sample-hold
attr source transmissionStateChanged
attr title "Radio transmission state, vector"
vector 168 UAVNetwork_Multi.basicHosts[11].wlan[0].radio transmissionState:vector ETV
attr interpolationmode sample-hold
attr source transmissionStateChanged
attr title "Radio transmission state, vector"
vector 169 UAVNetwork_Multi.basicHosts[6].wlan[0].mac packetDropIncorrectlyReceived:vector(packetBytes) ETV
attr interpolationmode none
attr source packetDropReasonIsIncorrectlyReceived(packetDropped)
attr title "packet drop: incorrectly received, vector(packetBytes)"
vector 170 UAVNetwork_Multi.basicHosts[2].wlan[0].radio transmissionState:vector ETV
attr interpolationmode sample-hold
attr source transmissionStateChanged
attr title "Radio transmission state, vector"
vector 171 UAVNetwork_Multi.basicHosts[7].wlan[0].radio transmissionState:vector ETV
attr interpolationmode sample-hold
attr source transmissionStateChanged
attr title "Radio transmission state, vector"
vector 172 UAVNetwork_Multi.basicHosts[10].wlan[0].radio transmissionState:vector ETV
attr interpolationmode sample-hold
attr source transmissionStateChanged
attr title "Radio transmission state, vector"
vector 173 UAVNetwork_Multi.basicHosts[29].wlan[0].radio transmissionState:vector ETV
attr interpolationmode sample-hold
attr source transmissionStateChanged
attr title "Radio transmission state, vector"
vector 174 UAVNetwork_Multi.basicHosts[5].app[0] pingRxSeq:vector ETV
attr interpolationmode none
attr title "ping rx seq, vector"
vector 175 UAVNetwork_Multi.basicHosts[5].app[0] rtt:vector ETV
attr interpolationmode none
attr title "ping round-trip time, vector"
attr unit s
vector 176 UAVNetwork_Multi.basicHosts[5].app[0] numOutOfOrderArrivals:vector ETV
attr interpolationmode none
attr title "ping out-of-order arrivals, vector"
vector 177 UAVNetwork_Multi.basicHosts[5].app[0] numLost:vector ETV
attr interpolationmode none
attr title "pings lost, vector"
vector 178 UAVNetwork_Multi.basicHosts[26].app[0] pingTxSeq:vector ETV
attr interpolationmode none
attr title "ping tx seq, vector"
vector 179 UAVNetwork_Multi.basicHosts[5].ipv4.ip packetDropForwardingDisabled:vector(packetBytes) ETV
attr interpolationmode none
attr source packetDropReasonIsForwardingDisabled(packetDropped)
attr title "packet drop: forwarding disabled, vector(packetBytes)"
vector 180 UAVNetwork_Multi.basicHosts[9].app[0] pingRxSeq:vector ETV
attr interpolationmode none
attr title "ping rx seq, vector"
vector 181 UAVNetwork_Multi.basicHosts[9].app[0] rtt:vector ETV
attr interpolationmode none
attr title "ping round-trip time, vector"
attr unit s
vector 182 UAVNetwork_Multi.basicHosts[16].app[0] pingTxSeq:vector ETV
attr interpolationmode none
attr title "ping tx seq, vector"
vector 183 UAVNetwork_Multi.basicHosts[15].wlan[0].radio transmissionState:vector ETV
attr interpolationmode sample-hold
attr source transmissionStateChanged
attr title "Radio transmission state, vector"
vector 184 UAVNetwork_Multi.basicHosts[14].wlan[0].radio transmissionState:vector ETV
attr interpolationmode sample-hold
attr source transmissionStateChanged
attr title "Radio transmission state, vector"
vector 185 UAVNetwork_Multi.basicHosts[9].ipv4.ip packetDropForwardingDisabled:vector(packetBytes) ETV
attr interpolationmode none
attr source packetDropReasonIsForwardingDisabled(packetDropped)
attr title "packet drop: forwarding disabled, vector(packetBytes)"
vector 186 UAVNetwork_Multi.basicHosts[6].app[0] pingTxSeq:vector ETV
attr interpolationmode none
attr title "ping tx seq, vector"
vector 187 UAVNetwork_Multi.basicHosts[13].app[0] pingTxSeq:vector ETV
attr interpolationmode none
attr title "ping tx seq, vector"
vector 188 UAVNetwork_Multi.basicHosts[6].wlan[0].radio transmissionState:vector ETV
attr interpolationmode sample-hold
attr source transmissionStateChanged
attr title "Radio transmission state, vector"
vector 189 UAVNetwork_Multi.basicHosts[15].app[0] pingTxSeq:vector ETV
attr interpolationmode none
attr title "ping tx seq, vector"
vector 190 UAVNetwork_Multi.basicHosts[4].wlan[0].radio transmissionState:vector ETV
attr interpolationmode sample-hold
attr source transmissionStateChanged
attr title "Radio transmission state, vector"
vector 191 UAVNetwork_Multi.basicHosts[17].wlan[0].radio transmissionState:vector ETV
attr interpolationmode sample-hold
attr source transmissionStateChanged
attr title "Radio transmission state, vector"
vector 192 UAVNetwork_Multi.basicHosts[8].wlan[0].mac packetDropRetryLimitReached:vector(packetBytes) ETV
attr interpolationmode none
attr source packetDropReasonIsRetryLimitReached(packetDropped)
attr title "packet drop: retry limit reached, vector(packetBytes)"
vector 193 UAVNetwork_Multi.basicHosts[22].wlan[0].radio transmissionState:vector ETV
attr interpolationmode sample-hold
attr source transmissionStateChanged
attr title "Radio transmission state, vector"
vector 194 UAVNetwork_Multi.basicHosts[8].app[0] pingTxSeq:vector ETV
attr interpolationmode none
attr title "ping tx seq, vector"
vector 195 UAVNetwork_Multi.basicHosts[18].wlan[0].radio transmissionState:vector ETV
attr interpolationmode sample-hold
attr source transmissionStateChanged
attr title "Radio transmission state, vector"
vector 196 UAVNetwork_Multi.basicHosts[3].wlan[0].radio transmissionState:vector ETV
attr interpolationmode sample-hold
attr source transmissionStateChanged
attr title "Radio transmission state, vector"
vector 197 UAVNetwork_Multi.basicHosts[26].ipv4.ip packetDropForwardingDisabled:vector(packetBytes) ETV
attr interpolationmode none
attr source packetDropReasonIsForwardingDisabled(packetDropped)
attr title "packet drop: forwarding disabled, vector(packetBytes)"
vector 198 UAVNetwork_Multi.basicHosts[19].wlan[0].mac packetDropIncorrectlyReceived:vector(packetBytes) ETV
attr interpolationmode none
attr source packetDropReasonIsIncorrectlyReceived(packetDropped)
attr title "packet drop: incorrectly received, vector(packetBytes)"
vector 199 UAVNetwork_Multi.basicHosts[19].wlan[0].radio transmissionState:vector ETV
attr interpolationmode sample-hold
attr source transmissionStateChanged
attr title "Radio transmission state, vector"
vector 200 UAVNetwork_Multi.basicHosts[7].ipv4.ip packetDropForwardingDisabled:vector(packetBytes) ETV
attr interpolationmode none
attr source packetDropReasonIsForwardingDisabled(packetDropped)
attr title "packet drop: forwarding disabled, vector(packetBytes)"
vector 201 UAVNetwork_Multi.basicHosts[13].app[0] pingRxSeq:vector ETV
attr interpolationmode none
attr title "ping rx seq, vector"
vector 202 UAVNetwork_Multi.basicHosts[13].app[0] rtt:vector ETV
attr interpolationmode none
attr title "ping round-trip time, vector"
attr unit s
vector 203 UAVNetwork_Multi.basicHosts[20].app[0] pingTxSeq:vector ETV
attr interpolationmode none
attr title "ping tx seq, vector"
vector 204 UAVNetwork_Multi.basicHosts[27].ipv4.ip packetDropForwardingDisabled:vector(packetBytes) ETV
attr interpolationmode none
attr source packetDropReasonIsForwardingDisabled(packetDropped)
attr title "packet drop: forwarding disabled, vector(packetBytes)"
vector 205 UAVNetwork_Multi.basicHosts[10].app[0] pingTxSeq:vector ETV
attr interpolationmode none
attr title "ping tx seq, vector"
vector 206 UAVNetwork_Multi.basicHosts[25].wlan[0].radio transmissionState:vector ETV
attr interpolationmode sample-hold
attr source transmissionStateChanged
attr title "Radio transmission state, vector"
vector 207 UAVNetwork_Multi.basicHosts[6].wlan[0].mac packetDropRetryLimitReached:vector(packetBytes) ETV
attr interpolationmode none
attr source packetDropReasonIsRetryLimitReached(packetDropped)
attr title "packet drop: retry limit reached, vector(packetBytes)"
vector 208 UAVNetwork_Multi.basicHosts[14].app[0] pingTxSeq:vector ETV
attr interpolationmode none
attr title "ping tx seq, vector"
vector 209 UAVNetwork_Multi.basicHosts[13].wlan[0].mac packetDropRetryLimitReached:vector(packetBytes) ETV
attr interpolationmode none
attr source packetDropReasonIsRetryLimitReached(packetDropped)
attr title "packet drop: retry limit reached, vector(packetBytes)"
vector 210 UAVNetwork_Multi.basicHosts[27].wlan[0].mac packetDropRetryLimitReached:vector(packetBytes) ETV
attr interpolationmode none
attr source packetDropReasonIsRetryLimitReached(packetDropped)
attr title "packet drop: retry limit reached, vector(packetBytes)"
vector 211 UAVNetwork_Multi.basicHosts[0].wlan[0].mac packetDropRetryLimitReached:vector(packetBytes) ETV
attr interpolationmode none
attr source packetDropReasonIsRetryLimitReached(packetDropped)
attr title "packet drop: retry limit reached, vector(packetBytes)"
vector 212 UAVNetwork_Multi.basicHosts[26].wlan[0].mac packetDropRetryLimitReached:vector(packetBytes) ETV
attr interpolationmode none
attr source packetDropReasonIsRetryLimitReached(packetDropped)
attr title "packet drop: retry limit reached, vector(packetBytes)"
vector 213 UAVNetwork_Multi.basicHosts[15].wlan[0].mac packetDropRetryLimitReached:vector(packetBytes) ETV
attr interpolationmode none
attr source packetDropReasonIsRetryLimitReached(packetDropped)
attr title "packet drop: retry limit reached, vector(packetBytes)"
vector 214 UAVNetwork_Multi.basicHosts[21].app[0] pingTxSeq:vector ETV
attr interpolationmode none
attr title "ping tx seq, vector"
vector 215 UAVNetwork_Multi.basicHosts[7].app[0] pingTxSeq:vector ETV
attr interpolationmode none
attr title "ping tx seq, vector"
vector 216 UAVNetwork_Multi.basicHosts[7].app[0] pingRxSeq:vector ETV
attr interpolationmode none
attr title "ping rx seq, vector"
vector 217 UAVNetwork_Multi.basicHosts[7].app[0] rtt:vector ETV
attr interpolationmode none
attr title "ping round-trip time, vector"
attr unit s
vector 218 UAVNetwork_Multi.basicHosts[21].wlan[0].radio transmissionState:vector ETV
attr interpolationmode sample-hold
attr source transmissionStateChanged
attr title "Radio transmission state, vector"
vector 219 UAVNetwork_Multi.basicHosts[3].ipv4.ip packetDropForwardingDisabled:vector(packetBytes) ETV
attr interpolationmode none
attr source packetDropReasonIsForwardingDisabled(packetDropped)
attr title "packet drop: forwarding disabled, vector(packetBytes)"
vector 220 UAVNetwork_Multi.basicHosts[18].app[0] pingTxSeq:vector ETV
attr interpolationmode none
attr title "ping tx seq, vector"
vector 221 UAVNetwork_Multi.basicHosts[28].wlan[0].mac packetDropRetryLimitReached:vector(packetBytes) ETV
attr interpolationmode none
attr source packetDropReasonIsRetryLimitReached(packetDropped)
attr title "packet drop: retry limit reached, vector(packetBytes)"
vector 222 UAVNetwork_Multi.basicHosts[2].wlan[0].mac packetDropRetryLimitReached:vector(packetBytes) ETV
attr interpolationmode none
attr source packetDropReasonIsRetryLimitReached(packetDropped)
attr title "packet drop: retry limit reached, vector(packetBytes)"
vector 223 UAVNetwork_Multi.basicHosts[1].app[0] pingTxSeq:vector ETV
attr interpolationmode none
attr title "ping tx seq, vector"
vector 224 UAVNetwork_Multi.basicHosts[10].ipv4.ip packetDropForwardingDisabled:vector(packetBytes) ETV
attr interpolationmode none
attr source packetDropReasonIsForwardingDisabled(packetDropped)
attr title "packet drop: forwarding disabled, vector(packetBytes)"
vector 225 UAVNetwork_Multi.basicHosts[23].app[0] pingTxSeq:vector ETV
attr interpolationmode none
attr title "ping tx seq, vector"
vector 226 UAVNetwork_Multi.hostRouters[0].ipv4.ip packetDropHopLimitReached:vector(packetBytes) ETV
attr interpolationmode none
attr source packetDropReasonIsHopLimitReached(packetDropped)
attr title "packet drop: hop limit reached, vector(packetBytes)"
vector 227 UAVNetwork_Multi.basicHosts[17].app[0] pingTxSeq:vector ETV
attr interpolationmode none
attr title "ping tx seq, vector"
vector 228 UAVNetwork_Multi.basicHosts[7].wlan[0].mac packetDropRetryLimitReached:vector(packetBytes) ETV
attr interpolationmode none
attr source packetDropReasonIsRetryLimitReached(packetDropped)
attr title "packet drop: retry limit reached, vector(packetBytes)"
vector 229 UAVNetwork_Multi.basicHosts[9].wlan[0].mac packetDropRetryLimitReached:vector(packetBytes) ETV
attr interpolationmode none
attr source packetDropReasonIsRetryLimitReached(packetDropped)
attr title "packet drop: retry limit reached, vector(packetBytes)"
vector 230 UAVNetwork_Multi.basicHosts[12].app[0] pingTxSeq:vector ETV
attr interpolationmode none
attr title "ping tx seq, vector"
vector 231 UAVNetwork_Multi.basicHosts[16].wlan[0].mac packetDropRetryLimitReached:vector(packetBytes) ETV
attr interpolationmode none
attr source packetDropReasonIsRetryLimitReached(packetDropped)
attr title "packet drop: retry limit reached, vector(packetBytes)"
vector 232 UAVNetwork_Multi.basicHosts[14].wlan[0].mac packetDropRetryLimitReached:vector(packetBytes) ETV
attr interpolationmode none
attr source packetDropReasonIsRetryLimitReached(packetDropped)
attr title "packet drop: retry limit reached, vector(packetBytes)"
vector 233 UAVNetwork_Multi.basicHosts[19].wlan[0].mac packetDropRetryLimitReached:vector(packetBytes) ETV
attr interpolationmode none
attr source packetDropReasonIsRetryLimitReached(packetDropped)
attr title "packet drop: retry limit reached, vector(packetBytes)"
vector 234 UAVNetwork_Multi.basicHosts[19].app[0] pingTxSeq:vector ETV
attr interpolationmode none
attr title "ping tx seq, vector"
vector 235 UAVNetwork_Multi.basicHosts[4].app[0] pingTxSeq:vector ETV
attr interpolationmode none
attr title "ping tx seq, vector"
vector 236 UAVNetwork_Multi.basicHosts[3].app[0] pingTxSeq:vector ETV
attr interpolationmode none
attr title "ping tx seq, vector"
vector 237 UAVNetwork_Multi.basicHosts[2].app[0] pingTxSeq:vector ETV
attr interpolationmode none
attr title "ping tx seq, vector"
vector 238 UAVNetwork_Multi.basicHosts[19].ipv4.ip packetDropForwardingDisabled:vector(packetBytes) ETV
attr interpolationmode none
attr source packetDropReasonIsForwardingDisabled(packetDropped)
attr title "packet drop: forwarding disabled, vector(packetBytes)"
vector 239 UAVNetwork_Multi.basicHosts[20].ipv4.ip packetDropForwardingDisabled:vector(packetBytes) ETV
attr interpolationmode none
attr source packetDropReasonIsForwardingDisabled(packetDropped)
attr title "packet drop: forwarding disabled, vector(packetBytes)"
vector 240 UAVNetwork_Multi.basicHosts[22].ipv4.ip packetDropForwardingDisabled:vector(packetBytes) ETV
attr interpolationmode none
attr source packetDropReasonIsForwardingDisabled(packetDropped)
attr title "packet drop: forwarding disabled, vector(packetBytes)"
vector 241 UAVNetwork_Multi.basicHosts[28].app[0] pingTxSeq:vector ETV
attr interpolationmode none
attr title "ping tx seq, vector"
vector 242 UAVNetwork_Multi.basicHosts[29].app[0] pingTxSeq:vector ETV
attr interpolationmode none
attr title "ping tx seq, vector"
vector 243 UAVNetwork_Multi.basicHosts[28].ipv4.ip packetDropForwardingDisabled:vector(packetBytes) ETV
attr interpolationmode none
attr source packetDropReasonIsForwardingDisabled(packetDropped)
attr title "packet drop: forwarding disabled, vector(packetBytes)"
vector 244 UAVNetwork_Multi.basicHosts[25].app[0] pingTxSeq:vector ETV
attr interpolationmode none
attr title "ping tx seq, vector"
vector 245 UAVNetwork_Multi.basicHosts[13].ipv4.ip packetDropForwardingDisabled:vector(packetBytes) ETV
attr interpolationmode none
attr source packetDropReasonIsForwardingDisabled(packetDropped)
attr title "packet drop: forwarding disabled, vector(packetBytes)"
vector 246 UAVNetwork_Multi.basicHosts[6].ipv4.ip packetDropForwardingDisabled:vector(packetBytes) ETV
attr interpolationmode none
attr source packetDropReasonIsForwardingDisabled(packetDropped)
attr title "packet drop: forwarding disabled, vector(packetBytes)"
vector 247 UAVNetwork_Multi.basicHosts[11].app[0] pingTxSeq:vector ETV
attr interpolationmode none
attr title "ping tx seq, vector"
vector 248 UAVNetwork_Multi.basicHosts[22].app[0] pingTxSeq:vector ETV
attr interpolationmode none
attr title "ping tx seq, vector"
vector 249 UAVNetwork_Multi.basicHosts[1].ipv4.ip packetDropForwardingDisabled:vector(packetBytes) ETV
attr interpolationmode none
attr source packetDropReasonIsForwardingDisabled(packetDropped)
attr title "packet drop: forwarding disabled, vector(packetBytes)"
vector 250 UAVNetwork_Multi.basicHosts[24].app[0] pingTxSeq:vector ETV
attr interpolationmode none
attr title "ping tx seq, vector"
vector 251 UAVNetwork_Multi.basicHosts[27].app[0] pingTxSeq:vector ETV
attr interpolationmode none
attr title "ping tx seq, vector"
vector 252 UAVNetwork_Multi.basicHosts[16].app[0] pingRxSeq:vector ETV
attr interpolationmode none
attr title "ping rx seq, vector"
vector 253 UAVNetwork_Multi.basicHosts[16].app[0] rtt:vector ETV
attr interpolationmode none
attr title "ping round-trip time, vector"
attr unit s
vector 254 UAVNetwork_Multi.basicHosts[16].app[0] numLost:vector ETV
attr interpolationmode none
attr title "pings lost, vector"
vector 255 UAVNetwork_Multi.basicHosts[29].ipv4.ip packetDropForwardingDisabled:vector(packetBytes) ETV
attr interpolationmode none
attr source packetDropReasonIsForwardingDisabled(packetDropped)
attr title "packet drop: forwarding disabled, vector(packetBytes)"
vector 256 UAVNetwork_Multi.basicHosts[20].app[0] pingRxSeq:vector ETV
attr interpolationmode none
attr title "ping rx seq, vector"
vector 257 UAVNetwork_Multi.basicHosts[20].app[0] rtt:vector ETV
attr interpolationmode none
attr title "ping round-trip time, vector"
attr unit s
vector 258 UAVNetwork_Multi.basicHosts[20].app[0] numLost:vector ETV
attr interpolationmode none
attr title "pings lost, vector"
vector 259 UAVNetwork_Multi.basicHosts[10].app[0] pingRxSeq:vector ETV
attr interpolationmode none
attr title "ping rx seq, vector"
vector 260 UAVNetwork_Multi.basicHosts[10].app[0] rtt:vector ETV
attr interpolationmode none
attr title "ping round-trip time, vector"
attr unit s
vector 261 UAVNetwork_Multi.basicHosts[10].app[0] numLost:vector ETV
attr interpolationmode none
attr title "pings lost, vector"
vector 262 UAVNetwork_Multi.basicHosts[14].app[0] pingRxSeq:vector ETV
attr interpolationmode none
attr title "ping rx seq, vector"
vector 263 UAVNetwork_Multi.basicHosts[14].app[0] rtt:vector ETV
attr interpolationmode none
attr title "ping round-trip time, vector"
attr unit s
vector 264 UAVNetwork_Multi.basicHosts[14].app[0] numLost:vector ETV
attr interpolationmode none
attr title "pings lost, vector"
vector 265 UAVNetwork_Multi.basicHosts[21].wlan[0].mac packetDropRetryLimitReached:vector(packetBytes) ETV
attr interpolationmode none
attr source packetDropReasonIsRetryLimitReached(packetDropped)
attr title "packet drop: retry limit reached, vector(packetBytes)"
vector 266 UAVNetwork_Multi.basicHosts[17].ipv4.ip packetDropForwardingDisabled:vector(packetBytes) ETV
attr interpolationmode none
attr source packetDropReasonIsForwardingDisabled(packetDropped)
attr title "packet drop: forwarding disabled, vector(packetBytes)"
vector 267 UAVNetwork_Multi.basicHosts[1].lo[0].lo rcvdPkFromHl:vector(packetBytes) ETV
attr interpolationmode none
attr source packetReceivedFromUpper
attr title "packets received from higher layer, vector(packetBytes)"
vector 268 UAVNetwork_Multi.basicHosts[1].lo[0].lo passedUpPk:vector(packetBytes) ETV
attr interpolationmode none
attr source packetSentToUpper
attr title "packets passed to higher layer, vector(packetBytes)"
vector 269 UAVNetwork_Multi.basicHosts[1].app[0] pingRxSeq:vector ETV
attr interpolationmode none
attr title "ping rx seq, vector"
vector 270 UAVNetwork_Multi.basicHosts[1].app[0] numLost:vector ETV
attr interpolationmode none
attr title "pings lost, vector"
vector 271 UAVNetwork_Multi.basicHosts[2].ipv4.ip packetDropForwardingDisabled:vector(packetBytes) ETV
attr interpolationmode none
attr source packetDropReasonIsForwardingDisabled(packetDropped)
attr title "packet drop: forwarding disabled, vector(packetBytes)"
vector 272 UAVNetwork_Multi.basicHosts[24].ipv4.ip packetDropForwardingDisabled:vector(packetBytes) ETV
attr interpolationmode none
attr source packetDropReasonIsForwardingDisabled(packetDropped)
attr title "packet drop: forwarding disabled, vector(packetBytes)"
vector 273 UAVNetwork_Multi.basicHosts[12].wlan[0].mac packetDropRetryLimitReached:vector(packetBytes) ETV
attr interpolationmode none
attr source packetDropReasonIsRetryLimitReached(packetDropped)
attr title "packet drop: retry limit reached, vector(packetBytes)"
vector 274 UAVNetwork_Multi.basicHosts[2].app[0] pingRxSeq:vector ETV
attr interpolationmode none
attr title "ping rx seq, vector"
vector 275 UAVNetwork_Multi.basicHosts[2].app[0] rtt:vector ETV
attr interpolationmode none
attr title "ping round-trip time, vector"
attr unit s
vector 276 UAVNetwork_Multi.basicHosts[2].app[0] numLost:vector ETV
attr interpolationmode none
attr title "pings lost, vector"
vector 277 UAVNetwork_Multi.basicHosts[28].app[0] pingRxSeq:vector ETV
attr interpolationmode none
attr title "ping rx seq, vector"
vector 278 UAVNetwork_Multi.basicHosts[28].app[0] rtt:vector ETV
attr interpolationmode none
attr title "ping round-trip time, vector"
attr unit s
vector 279 UAVNetwork_Multi.basicHosts[28].app[0] numLost:vector ETV
attr interpolationmode none
attr title "pings lost, vector"
vector 280 UAVNetwork_Multi.basicHosts[29].app[0] pingRxSeq:vector ETV
attr interpolationmode none
attr title "ping rx seq, vector"
vector 281 UAVNetwork_Multi.basicHosts[29].app[0] rtt:vector ETV
attr interpolationmode none
attr title "ping round-trip time, vector"
attr unit s
vector 282 UAVNetwork_Multi.basicHosts[29].app[0] numLost:vector ETV
attr interpolationmode none
attr title "pings lost, vector"
vector 283 UAVNetwork_Multi.basicHosts[25].app[0] pingRxSeq:vector ETV
attr interpolationmode none
attr title "ping rx seq, vector"
vector 284 UAVNetwork_Multi.basicHosts[25].app[0] rtt:vector ETV
attr interpolationmode none
attr title "ping round-trip time, vector"
attr unit s
vector 285 UAVNetwork_Multi.basicHosts[25].app[0] numLost:vector ETV
attr interpolationmode none
attr title "pings lost, vector"
vector 286 UAVNetwork_Multi.basicHosts[11].app[0] pingRxSeq:vector ETV
attr interpolationmode none
attr title "ping rx seq, vector"
vector 287 UAVNetwork_Multi.basicHosts[11].app[0] rtt:vector ETV
attr interpolationmode none
attr title "ping round-trip time, vector"
attr unit s
vector 288 UAVNetwork_Multi.basicHosts[11].app[0] numLost:vector ETV
attr interpolationmode none
attr title "pings lost, vector"
vector 289 UAVNetwork_Multi.basicHosts[22].app[0] pingRxSeq:vector ETV
attr interpolationmode none
attr title "ping rx seq, vector"
vector 290 UAVNetwork_Multi.basicHosts[22].app[0] rtt:vector ETV
attr interpolationmode none
attr title "ping round-trip time, vector"
attr unit s
vector 291 UAVNetwork_Multi.basicHosts[22].app[0] numLost:vector ETV
attr interpolationmode none
attr title "pings lost, vector"
vector 292 UAVNetwork_Multi.basicHosts[24].app[0] pingRxSeq:vector ETV
attr interpolationmode none
attr title "ping rx seq, vector"
vector 293 UAVNetwork_Multi.basicHosts[24].app[0] rtt:vector ETV
attr interpolationmode none
attr title "ping round-trip time, vector"
attr unit s
vector 294 UAVNetwork_Multi.basicHosts[24].app[0] numLost:vector ETV
attr interpolationmode none
attr title "pings lost, vector"
vector 295 UAVNetwork_Multi.basicHosts[27].app[0] pingRxSeq:vector ETV
attr interpolationmode none
attr title "ping rx seq, vector"
vector 296 UAVNetwork_Multi.basicHosts[27].app[0] rtt:vector ETV
attr interpolationmode none
attr title "ping round-trip time, vector"
attr unit s
vector 297 UAVNetwork_Multi.basicHosts[27].app[0] numLost:vector ETV
attr interpolationmode none
attr title "pings lost, vector"
vector 298 UAVNetwork_Multi.hostRouters[1].app[0] pingTxSeq:vector ETV
attr interpolationmode none
attr title "ping tx seq, vector"
vector 299 UAVNetwork_Multi.hostRouters[3].app[0] pingTxSeq:vector ETV
attr interpolationmode none
attr title "ping tx seq, vector"
vector 300 UAVNetwork_Multi.hostRouters[1].app[0] pingRxSeq:vector ETV
attr interpolationmode none
attr title "ping rx seq, vector"
vector 301 UAVNetwork_Multi.hostRouters[1].app[0] rtt:vector ETV
attr interpolationmode none
attr title "ping round-trip time, vector"
attr unit s
vector 302 UAVNetwork_Multi.hostRouters[1].app[0] numOutOfOrderArrivals:vector ETV
attr interpolationmode none
attr title "ping out-of-order arrivals, vector"
vector 303 UAVNetwork_Multi.hostRouters[1].app[0] numLost:vector ETV
attr interpolationmode none
attr title "pings lost, vector"
vector 304 UAVNetwork_Multi.hostRouters[3].app[0] pingRxSeq:vector ETV
attr interpolationmode none
attr title "ping rx seq, vector"
vector 305 UAVNetwork_Multi.hostRouters[3].app[0] rtt:vector ETV
attr interpolationmode none
attr title "ping round-trip time, vector"
attr unit s
vector 306 UAVNetwork_Multi.basicHosts[0].ipv4.ip packetDropForwardingDisabled:vector(packetBytes) ETV
attr interpolationmode none
attr source packetDropReasonIsForwardingDisabled(packetDropped)
attr title "packet drop: forwarding disabled, vector(packetBytes)"
vector 307 UAVNetwork_Multi.basicHosts[21].app[0] pingRxSeq:vector ETV
attr interpolationmode none
attr title "ping rx seq, vector"
vector 308 UAVNetwork_Multi.basicHosts[21].app[0] rtt:vector ETV
attr interpolationmode none
attr title "ping round-trip time, vector"
attr unit s
vector 309 UAVNetwork_Multi.basicHosts[21].app[0] numLost:vector ETV
attr interpolationmode none
attr title "pings lost, vector"
vector 310 UAVNetwork_Multi.basicHosts[1].app[0] rtt:vector ETV
attr interpolationmode none
attr title "ping round-trip time, vector"
attr unit s
vector 311 UAVNetwork_Multi.basicHosts[23].app[0] pingRxSeq:vector ETV
attr interpolationmode none
attr title "ping rx seq, vector"
vector 312 UAVNetwork_Multi.basicHosts[23].app[0] rtt:vector ETV
attr interpolationmode none
attr title "ping round-trip time, vector"
attr unit s
vector 313 UAVNetwork_Multi.basicHosts[23].app[0] numLost:vector ETV
attr interpolationmode none
attr title "pings lost, vector"
vector 314 UAVNetwork_Multi.basicHosts[12].app[0] pingRxSeq:vector ETV
attr interpolationmode none
attr title "ping rx seq, vector"
vector 315 UAVNetwork_Multi.basicHosts[12].app[0] rtt:vector ETV
attr interpolationmode none
attr title "ping round-trip time, vector"
attr unit s
vector 316 UAVNetwork_Multi.basicHosts[12].app[0] numLost:vector ETV
attr interpolationmode none
attr title "pings lost, vector"
vector 317 UAVNetwork_Multi.hostRouters[3].ipv4.ip packetDropHopLimitReached:vector(packetBytes) ETV
attr interpolationmode none
attr source packetDropReasonIsHopLimitReached(packetDropped)
attr title "packet drop: hop limit reached, vector(packetBytes)"
vector 318 UAVNetwork_Multi.basicHosts[2].lo[0].lo rcvdPkFromHl:vector(packetBytes) ETV
attr interpolationmode none
attr source packetReceivedFromUpper
attr title "packets received from higher layer, vector(packetBytes)"
vector 319 UAVNetwork_Multi.basicHosts[2].lo[0].lo passedUpPk:vector(packetBytes) ETV
attr interpolationmode none
attr source packetSentToUpper
attr title "packets passed to higher layer, vector(packetBytes)"
vector 320 UAVNetwork_Multi.basicHosts[3].app[0] pingRxSeq:vector ETV
attr interpolationmode none
attr title "ping rx seq, vector"
vector 321 UAVNetwork_Multi.basicHosts[3].app[0] rtt:vector ETV
attr interpolationmode none
attr title "ping round-trip time, vector"
attr unit s
vector 322 UAVNetwork_Multi.basicHosts[3].app[0] numLost:vector ETV
attr interpolationmode none
attr title "pings lost, vector"
vector 323 UAVNetwork_Multi.basicHosts[24].wlan[0].mac packetDropRetryLimitReached:vector(packetBytes) ETV
attr interpolationmode none
attr source packetDropReasonIsRetryLimitReached(packetDropped)
attr title "packet drop: retry limit reached, vector(packetBytes)"
vector 324 UAVNetwork_Multi.basicHosts[4].wlan[0].mac packetDropRetryLimitReached:vector(packetBytes) ETV
attr interpolationmode none
attr source packetDropReasonIsRetryLimitReached(packetDropped)
attr title "packet drop: retry limit reached, vector(packetBytes)"
vector 325 UAVNetwork_Multi.hostRouters[0].app[0] pingTxSeq:vector ETV
attr interpolationmode none
attr title "ping tx seq, vector"
vector 326 UAVNetwork_Multi.hostRouters[0].app[0] pingRxSeq:vector ETV
attr interpolationmode none
attr title "ping rx seq, vector"
vector 327 UAVNetwork_Multi.hostRouters[0].app[0] rtt:vector ETV
attr interpolationmode none
attr title "ping round-trip time, vector"
attr unit s
vector 328 UAVNetwork_Multi.basicHosts[17].wlan[0].mac packetDropRetryLimitReached:vector(packetBytes) ETV
attr interpolationmode none
attr source packetDropReasonIsRetryLimitReached(packetDropped)
attr title "packet drop: retry limit reached, vector(packetBytes)"
vector 329 UAVNetwork_Multi.hostRouters[4].app[0] pingTxSeq:vector ETV
attr interpolationmode none
attr title "ping tx seq, vector"
vector 330 UAVNetwork_Multi.hostRouters[4].app[0] pingRxSeq:vector ETV
attr interpolationmode none
attr title "ping rx seq, vector"
vector 331 UAVNetwork_Multi.hostRouters[4].app[0] rtt:vector ETV
attr interpolationmode none
attr title "ping round-trip time, vector"
attr unit s
vector 332 UAVNetwork_Multi.basicHosts[1].wlan[0].mac packetDropRetryLimitReached:vector(packetBytes) ETV
attr interpolationmode none
attr source packetDropReasonIsRetryLimitReached(packetDropped)
attr title "packet drop: retry limit reached, vector(packetBytes)"
vector 333 UAVNetwork_Multi.hostRouters[2].app[0] pingTxSeq:vector ETV
attr interpolationmode none
attr title "ping tx seq, vector"
vector 334 UAVNetwork_Multi.basicHosts[22].wlan[0].mac packetDropRetryLimitReached:vector(packetBytes) ETV
attr interpolationmode none
attr source packetDropReasonIsRetryLimitReached(packetDropped)
attr title "packet drop: retry limit reached, vector(packetBytes)"
vector 335 UAVNetwork_Multi.hostRouters[4].ipv4.ip packetDropHopLimitReached:vector(packetBytes) ETV
attr interpolationmode none
attr source packetDropReasonIsHopLimitReached(packetDropped)
attr title "packet drop: hop limit reached, vector(packetBytes)"
vector 336 UAVNetwork_Multi.basicHosts[6].app[0] pingRxSeq:vector ETV
attr interpolationmode none
attr title "ping rx seq, vector"
vector 337 UAVNetwork_Multi.basicHosts[6].app[0] rtt:vector ETV
attr interpolationmode none
attr title "ping round-trip time, vector"
attr unit s
vector 338 UAVNetwork_Multi.basicHosts[6].app[0] numLost:vector ETV
attr interpolationmode none
attr title "pings lost, vector"
vector 339 UAVNetwork_Multi.basicHosts[3].wlan[0].mac packetDropRetryLimitReached:vector(packetBytes) ETV
attr interpolationmode none
attr source packetDropReasonIsRetryLimitReached(packetDropped)
attr title "packet drop: retry limit reached, vector(packetBytes)"
vector 340 UAVNetwork_Multi.basicHosts[4].ipv4.ip packetDropForwardingDisabled:vector(packetBytes) ETV
attr interpolationmode none
attr source packetDropReasonIsForwardingDisabled(packetDropped)
attr title "packet drop: forwarding disabled, vector(packetBytes)"
vector 341 UAVNetwork_Multi.basicHosts[20].wlan[0].mac packetDropRetryLimitReached:vector(packetBytes) ETV
attr interpolationmode none
attr source packetDropReasonIsRetryLimitReached(packetDropped)
attr title "packet drop: retry limit reached, vector(packetBytes)"
vector 342 UAVNetwork_Multi.basicHosts[16].ipv4.ip packetDropForwardingDisabled:vector(packetBytes) ETV
attr interpolationmode none
attr source packetDropReasonIsForwardingDisabled(packetDropped)
attr title "packet drop: forwarding disabled, vector(packetBytes)"
vector 343 UAVNetwork_Multi.basicHosts[10].wlan[0].mac packetDropRetryLimitReached:vector(packetBytes) ETV
attr interpolationmode none
attr source packetDropReasonIsRetryLimitReached(packetDropped)
attr title "packet drop: retry limit reached, vector(packetBytes)"
vector 344 UAVNetwork_Multi.basicHosts[17].app[0] pingRxSeq:vector ETV
attr interpolationmode none
attr title "ping rx seq, vector"
vector 345 UAVNetwork_Multi.basicHosts[17].app[0] rtt:vector ETV
attr interpolationmode none
attr title "ping round-trip time, vector"
attr unit s
vector 346 UAVNetwork_Multi.basicHosts[17].app[0] numLost:vector ETV
attr interpolationmode none
attr title "pings lost, vector"
vector 347 UAVNetwork_Multi.basicHosts[14].ipv4.ip packetDropForwardingDisabled:vector(packetBytes) ETV
attr interpolationmode none
attr source packetDropReasonIsForwardingDisabled(packetDropped)
attr title "packet drop: forwarding disabled, vector(packetBytes)"
vector 348 UAVNetwork_Multi.basicHosts[19].app[0] pingRxSeq:vector ETV
attr interpolationmode none
attr title "ping rx seq, vector"
vector 349 UAVNetwork_Multi.basicHosts[19].app[0] rtt:vector ETV
attr interpolationmode none
attr title "ping round-trip time, vector"
attr unit s
vector 350 UAVNetwork_Multi.basicHosts[19].app[0] numLost:vector ETV
attr interpolationmode none
attr title "pings lost, vector"
vector 351 UAVNetwork_Multi.basicHosts[3].lo[0].lo rcvdPkFromHl:vector(packetBytes) ETV
attr interpolationmode none
attr source packetReceivedFromUpper
attr title "packets received from higher layer, vector(packetBytes)"
vector 352 UAVNetwork_Multi.basicHosts[3].lo[0].lo passedUpPk:vector(packetBytes) ETV
attr interpolationmode none
attr source packetSentToUpper
attr title "packets passed to higher layer, vector(packetBytes)"
vector 353 UAVNetwork_Multi.basicHosts[4].app[0] pingRxSeq:vector ETV
attr interpolationmode none
attr title "ping rx seq, vector"
vector 354 UAVNetwork_Multi.basicHosts[4].app[0] rtt:vector ETV
attr interpolationmode none
attr title "ping round-trip time, vector"
attr unit s
[...]
102	18071124 4156 956108 1156519 16.713201378744 20.268944718467 129 68 104 10568 904512
103	18075280 16757 958606 1158867 16.761970452898 20.308560784643 522 68 104 41380 3423312
104	18092037 17640 956101 1158883 16.713201056179 20.308561167276 550 68 104 44644 3786928
105	18109677 8119 961690 1156537 16.774408297368 20.268945299426 253 68 104 19924 1636144
106	18117796 8603 956302 1158696 16.714886850846 20.307141832898 269 68 104 21460 1786736
107	18126399 6388 959479 1150256 16.765113985496 20.225939013143 208 0 2 208 312
108	18132787 16905 956106 1158865 16.713201319361 20.308560775569 528 68 104 41972 3483600
109	18149692 4648 958944 1156920 16.763284152968 20.277712040894 146 17 104 10265 785661
110	18154340 7382 958614 1157393 16.761970850487 20.284225165236 232 17 104 16520 1279524
111	18161722 4332 1010902 1118931 17.46780200334 19.628502797421 140 0 2 140 210
112	18166054 14120 961193 1158859 16.771793775118 20.308560493437 440 68 104 34588 2836784
113	18180174 1301 958008 1157399 16.758215716334 20.284225199358 41 17 104 2661 188133
114	18181475 3190 960405 1157270 16.7681037897 20.28157085822 100 17 104 6951 516007
115	18184665 4782 959370 1157397 16.764763841666 20.28422519346 150 17 104 10179 771155
116	18189447 444 959556 1150106 16.765710704147 20.225075224386 14 17 104 1001 76705
117	18189891 3488 958942 1155405 16.763284075229 20.251101737308 110 17 104 7774 598906
118	18193379 2225 960078 1155418 16.767175364423 20.251102161654 70 17 104 5020 383140
119	18195604 5040 958497 1157395 16.761257626831 20.284225178491 158 17 104 10734 822422
120	18200644 5197 958012 1157386 16.758215795766 20.284224709656 163 17 104 11026 834054
121	18205841 1617 958003 1155453 16.758215511771 20.251557895788 51 17 104 3481 257429
122	18207458 4662 956732 1154356 16.726008579329 20.24468796887 145 68 104 11808 1004416
123	18212120 14693 956111 1158894 16.713201437277 20.308561443021 459 68 104 36312 2996928
124	18226813 4984 957999 1157445 16.758215211704 20.284952349081 157 17 104 10274 765722
125	18231797 7350 958420 1157433 16.760751210568 20.284951732958 231 17 104 15826 1196378
126	18239147 128 970756 1059922 16.845484069626 18.452900642683 4 68 104 352 32032
127	18239275 5098 958622 1157384 16.761971072242 20.284224628374 160 17 104 11199 854607
128	18244373 4926 958066 1156996 16.758514031625 20.27824639717 155 17 104 10825 817565
129	18249299 3050 958005 1154085 16.758215633568 20.242389397171 96 17 104 6690 494006
130	18252349 3755 959050 1157390 16.763373409169 20.284225009715 118 17 104 8462 642374
131	18256104 2806 959926 1155456 16.766491147717 20.251557999926 88 17 104 6276 470692
132	18258910 4341 958416 1157439 16.760751064222 20.284951997705 136 17 104 9420 724640
134	18263251 1876 959910 1152174 16.766490817225 20.233439764369 59 17 104 4378 341506
135	18265127 4649 958001 1157380 16.758215403484 20.284224586173 146 17 104 9906 745746
136	18269776 32 1104971 1104971 19.318562571705 19.318562571705 1 68 68 68 4624
137	18269808 33 1118891 1118891 19.625499821545 19.625499821545 1 104 104 104 10816
139	18269841 127 985850 1132878 17.007543100044 20.007543100044 4 14 17 62 966
140	18269968 6772 958886 1156153 16.762778089823 20.266091452884 220 0 2 220 330
141	18276740 127 986564 1132967 17.010374158155 20.010374158155 4 14 17 62 966
144	18276867 64 1038911 1039089 18.014221045827 18.015307933294 2 15 15 30 450
145	18276931 8000 958228 1150383 16.759709650415 20.226744030028 260 0 2 260 390
146	18284931 6620 959964 1152943 16.766580195096 20.236503528375 216 0 2 216 324
147	18291551 8436 959676 1154049 16.765894628763 20.242387782484 276 0 2 276 414
148	18299987 1791 958645 1157278 16.761971787935 20.28157112867 56 17 104 4190 331858
149	18301778 2700 958636 1157268 16.761971336079 20.2815708259 85 17 104 6011 460055
150	18304478 3147 958951 1157273 16.76328454049 20.281571068665 99 17 104 6454 488002
151	18307625 4160 959288 1124971 16.764373147533 19.946170276714 136 0 2 136 204
152	18311785 127 986780 1133144 17.013322010869 20.013322010869 4 14 17 62 966
153	18311912 5540 960564 1150732 16.768754898969 20.228191362316 180 0 2 180 270
154	18317452 4877 958052 1155602 16.758513448345 20.256054662001 153 17 104 10755 844723
155	18322329 4011 959054 1155630 16.763373521907 20.256269977477 126 17 104 9073 686037
156	18326340 4427 958345 1157388 16.760305395515 20.284224848542 139 17 104 9423 716419
157	18330767 7028 959248 1157509 16.764168490902 20.285955658661 228 0 2 228 342
158	18337795 2708 958641 1157275 16.761971502819 20.281571073247 85 17 104 5871 454011
159	18340503 6676 960263 1146580 16.767508659418 20.172648258305 216 0 2 216 324
160	18347179 14122 956145 1149876 16.713211621744 20.224200155381 464 0 2 464 696
161	18361301 3284 958971 1140028 16.7633472159 20.058136909991 108 0 2 108 162
162	18364585 7112 959707 1156515 16.765895775695 20.268943720991 232 0 2 232 348
163	18371697 6468 959674 1152093 16.765894406922 20.233438128365 212 0 2 212 318
164	18378165 4447 959597 1154677 16.765765010426 20.245652598041 140 17 104 9570 713534
165	18382612 1938 959603 1154712 16.765765265724 20.246179668618 61 17 104 4418 334722
166	18384550 12280 961266 1158857 16.771903687164 20.308559989533 400 0 2 400 600
167	18396830 8580 958531 1158670 16.761407998281 20.30714076406 280 0 2 280 420
168	18405410 7480 960654 1128651 16.769238315608 19.961875239054 244 0 2 244 366
169	18412890 3890 963220 1157441 16.792710975734 20.284952116515 122 17 104 8628 652920
170	18416780 5160 960177 1152094 16.767345738373 20.233438174039 168 0 2 168 252
171	18421940 7976 960358 1150392 16.76807045473 20.226744699285 260 0 2 260 390
172	18429916 8384 958714 1158765 16.76211339178 20.307306264037 272 0 2 272 408
173	18438300 6536 956095 1150010 16.713199919218 20.224845784056 213 0 2 212 318
174	18444836 64 1038348 1080920 18.009669574465 19.010229820562 2 15 16 31 481
175	18444900 88 1038348 1080920 18.009669574465 19.010229820562 2 0.002126474421 0.002686720518 0.004813194939 1.1740360605009e-005
177	18444988 31 1038348 1038348 18.009669574465 18.009669574465 1 7 7 7 49
178	18445019 127 989080 1137772 17.038748374209 20.038748374209 4 14 17 62 966
179	18445146 95 1047002 1156095 18.221450109706 20.265927452884 3 84 84 252 21168
180	18445241 31 1039444 1039444 18.01755995432 18.01755995432 1 15 15 15 225
181	18445272 43 1039444 1039444 18.01755995432 18.01755995432 1 0.004237943451 0.004237943451 0.004237943451 1.7960164693874e-005
182	18445315 127 990039 1140091 17.084059653804 20.084059653804 4 14 17 62 966
183	18445442 11096 960954 1150196 16.770144818679 20.225838274856 360 0 2 360 540
184	18456538 16508 964786 1157799 16.804514938054 20.298143215047 536 0 2 536 804
185	18473046 128 1017743 1140149 17.705336045511 20.085181062011 4 84 84 336 28224
186	18473174 123 992212 1140288 17.13382953289 20.13382953289 4 14 17 62 966
187	18473297 127 992610 1140497 17.137526819482 20.137526819482 4 14 17 62 966
188	18473424 8492 962280 1157905 16.778772142793 20.298792666582 276 0 2 276 414
189	18481916 127 992750 1140635 17.138613280142 20.138613280142 4 14 17 62 966
190	18482043 6116 963967 1123138 16.799377990558 19.89096734095 200 0 2 200 300
191	18488159 7248 958264 1152464 16.760188328323 20.234431094904 236 0 2 236 354
193	18495407 7052 963316 1141194 16.794670203839 20.14180351513 232 0 2 232 348
194	18502459 127 993804 1141239 17.142111092107 20.142111092107 4 14 17 62 966
195	18502586 5612 963049 1141538 16.789999914642 20.143315727181 184 0 2 184 276
196	18508198 4788 960441 1141488 16.768233764322 20.143095466192 156 0 2 156 234
198	18512986 4458 958639 1157448 16.761971370739 20.284952391761 140 17 104 9572 705804
199	18517444 8484 963417 1122974 16.79602470771 19.890108846019 280 0 2 280 420
200	18525928 191 982928 1130217 16.973849125218 19.971486895088 6 48 84 468 37584
201	18526119 31 1147125 1147125 20.18144101972 20.18144101972 1 17 17 17 289
202	18526150 43 1147125 1147125 20.18144101972 20.18144101972 1 0.043914200238 0.043914200238 0.043914200238 0.0019284569825432
203	18526193 127 995356 1145808 17.166776350932 20.166776350932 4 14 17 62 966
205	18526320 127 996792 1149415 17.218558674213 20.218558674213 4 14 17 62 966
206	18526447 5632 956880 1150571 16.735439205759 20.227469526384 184 0 2 184 276
207	18532079 31 1060580 1060580 18.46232270044 18.46232270044 1 68 68 68 4624
208	18532110 127 996990 1155034 17.248101173434 20.248101173434 4 14 17 62 966
209	18532237 128 957608 1116106 16.754464201518 19.465600126859 4 68 104 344 30880
210	18532365 64 1029920 1096000 17.793518341293 19.247075176134 2 68 68 136 9248
211	18532429 32 1059102 1059102 18.439070157753 18.439070157753 1 68 68 68 4624
212	18532461 32 990081 990081 17.084708374209 17.084708374209 1 104 104 104 10816
214	18532493 95 997032 1104536 17.315708867274 19.315708867274 3 14 16 45 677
215	18532588 95 997075 1104579 17.316224311944 19.316224311944 3 14 16 45 677
218	18532683 6408 960000 1146916 16.766659969554 20.175999337882 208 0 2 208 312
220	18539091 96 1000817 1105818 17.345498642651 19.345498642651 3 14 16 45 677
221	18539187 32 1157419 1157419 20.284523598655 20.284523598655 1 68 68 68 4624
223	18539219 96 1003852 1108482 17.364461026154 19.364461026154 3 14 16 45 677
224	18539315 63 1082754 1116627 19.13690670558 19.496997694536 2 84 84 168 14112
225	18539378 96 1004400 1109174 17.373951180838 19.373951180838 3 14 16 45 677
227	18539474 96 1005637 1111839 17.395885852398 19.395885852398 3 14 16 45 677
228	18539570 32 1006549 1006549 17.406325552457 17.406325552457 1 68 68 68 4624
230	18539602 96 1007263 1113821 17.418508185772 19.418508185772 3 14 16 45 677
231	18539698 32 1058788 1058788 18.435470256975 18.435470256975 1 68 68 68 4624
232	18539730 128 989886 1157755 17.073626906432 20.293910663904 4 68 104 308 24688
233	18539858 92 974567 984487 16.877580769457 16.99335664549 3 68 68 204 13872
234	18539950 96 1013216 1116468 17.494654514128 19.494654514128 3 14 16 45 677
235	18540046 90 1013399 1116511 17.4957732982 19.4957732982 3 14 16 45 677
236	18540136 96 1013748 1116845 17.499130365672 19.499130365672 3 14 16 45 677
237	18540232 96 1013915 1117097 17.501874595415 19.501874595415 3 14 16 45 677
239	18540328 127 995029 1111615 17.150464286176 19.394239605141 4 84 84 336 28224
240	18540455 31 965804 965804 16.809789503799 16.809789503799 1 84 84 84 7056
241	18540486 93 1016717 1119538 17.69910739176 19.69910739176 3 14 16 45 677
242	18540579 96 1016898 1119928 17.701548448997 19.701548448997 3 14 16 45 677
244	18540675 127 956819 1120731 16.734658046393 19.734658046393 4 13 16 58 846
245	18540802 158 1116807 1149803 19.499119416698 20.224036155381 5 84 84 420 35280
246	18540960 32 1116979 1116979 19.500806445042 19.500806445042 1 84 84 84 7056
247	18540992 127 974514 1121399 16.877221208997 19.877221208997 4 13 16 58 846
248	18541119 127 974606 1121526 16.878559082747 19.878559082747 4 13 16 58 846
249	18541246 470 970995 1092476 16.847802855532 19.203072561945 15 84 84 1260 105840
250	18541716 127 979186 1126157 16.950964029413 19.950964029413 4 13 16 58 846
251	18541843 127 982110 1129701 16.967904078308 19.967904078308 4 13 16 58 846
252	18541970 32 1082232 1082232 19.084059653804 19.084059653804 1 16 16 16 256
254	18542002 32 1082232 1082232 19.084059653804 19.084059653804 1 12 12 12 144
255	18542034 288 1040095 1104696 18.085261108077 19.317205521525 9 84 84 756 63504
256	18542322 32 1147661 1147661 20.185488236476 20.185488236476 1 17 17 17 289
257	18542354 44 1147661 1147661 20.185488236476 20.185488236476 1 0.018711885544 0.018711885544 0.018711885544 0.00035013466061176
258	18542398 32 1147661 1147661 20.185488236476 20.185488236476 1 11 11 11 121
262	18542430 63 997002 1047548 17.248101173434 18.250586703513 2 14 15 29 421
263	18542493 44 1047548 1047548 18.250586703513 18.250586703513 1 0.002485530079 0.002485530079 0.002485530079 6.1778597736137e-006
264	18542537 31 997002 997002 17.248101173434 17.248101173434 1 12 12 12 144
265	18542568 97 1060209 1109814 18.457485739781 19.379940282227 3 68 104 240 20064
266	18542665 32 1074593 1074593 18.884323060001 18.884323060001 1 84 84 84 7056
269	18542697 64 1004265 1050640 17.369782766675 18.366846908456 2 14 15 29 421
271	18542761 127 1039715 1067415 18.041689906569 18.700588060368 4 84 84 336 28224
272	18542888 128 1087376 1124014 19.157315404317 19.904538882854 4 84 84 336 28224
273	18543016 33 1115392 1115392 19.440535805696 19.440535805696 1 104 104 104 10816
274	18543049 64 1065976 1117578 18.523242017038 19.505880800886 2 15 16 31 481
275	18543113 88 1065976 1117578 18.523242017038 19.505880800886 2 0.004006205471 0.021367421623 0.025373627094 0.00047261638909092
276	18543201 31 1065976 1065976 18.523242017038 18.523242017038 1 7 7 7 49
280	18543232 62 956401 961209 16.716907324514 16.771794449319 2 13 13 26 338
281	18543294 43 956401 956401 16.716907324514 16.716907324514 1 0.015358875517 0.015358875517 0.015358875517 0.0002358950571467
282	18543337 62 956401 961209 16.716907324514 16.771794449319 2 10 10 20 200
283	18543399 95 957651 1027230 16.755724379105 17.755519807552 3 13 14 41 561
284	18543494 87 957651 1025851 16.755724379105 17.746109165335 2 0.011451118942 0.021066332712 0.032517451654 0.00057491849895651
285	18543581 61 957651 1027230 16.755724379105 17.755519807552 2 7 7 14 98
289	18543642 63 978475 1034242 16.925827785048 17.886292929884 2 13 14 27 365
290	18543705 87 978475 1034242 16.925827785048 17.886292929884 2 0.007733847137 0.047268702301 0.055002549438 0.002294142608759
291	18543792 30 978475 978475 16.925827785048 16.925827785048 1 9 9 9 81
292	18543822 60 980126 1079374 16.957880586 18.953330408183 2 13 15 28 394
293	18543882 83 980126 1079374 16.957880586 18.953330408183 2 0.00236637877 0.006916556587 0.009282935357 5.343850350428e-005
294	18543965 58 980126 1079374 16.957880586 18.953330408183 2 6 7 13 85
298	18544023 127 992413 1140294 17.135425145272 20.135425145272 4 12 15 54 734
299	18544150 127 992418 1140337 17.136006979272 20.136006979272 4 12 15 54 734
300	18544277 224 1011733 1141022 17.471246096802 20.140879069997 7 12 15 88 1114
301	18544501 131 1011733 1141022 17.471246096802 20.140879069997 3 0.002265239114 0.33582095153 0.343540115369 0.11281058808966
302	18544632 124 1012723 1014368 17.478225194583 17.529305201495 4 5 8 26 174
303	18544756 155 1012723 1141022 17.478225194583 20.140879069997 5 2 3 11 25
304	18544911 32 1141264 1141264 20.142246032876 20.142246032876 1 15 15 15 225
305	18544943 44 1141264 1141264 20.142246032876 20.142246032876 1 0.006239053604 0.006239053604 0.006239053604 3.8925789873585e-005
306	18544987 127 1021762 1130043 17.724400779518 19.970139397918 4 84 84 336 28224
310	18545114 88 1004265 1050640 17.369782766675 18.366846908456 2 0.002385882302 0.005321740521 0.007707622823 3.401335653185e-005
317	18545202 32 1051470 1051470 18.390786975719 18.390786975719 1 84 84 84 7056
323	18545234 63 992171 1029977 17.133234417957 17.794350647704 2 68 68 136 9248
324	18545297 32 1115314 1115314 19.439896445416 19.439896445416 1 68 68 68 4624
325	18545329 96 1014506 1118190 17.572759821545 19.572759821545 3 12 14 39 509
326	18545425 128 1014986 1066817 17.576474489896 18.578440472253 4 12 13 49 601
327	18545553 88 1014986 1066817 17.576474489896 18.578440472253 2 0.003714668351 0.005680650708 0.009395319059 4.6068553424222e-005
328	18545641 31 969103 969103 16.828650013536 16.828650013536 1 68 68 68 4624
329	18545672 93 1016325 1119016 17.66689896863 19.66689896863 3 12 14 39 509
330	18545765 95 1016566 1119393 17.66942753024 19.671727317328 3 12 14 39 509
331	18545860 130 1016566 1119393 17.66942753024 19.671727317328 3 0.00252856161 0.004828348698 0.010124457349 3.7365891589192e-005
333	18545990 127 976848 1123401 16.898007123731 19.898007123731 4 11 14 50 630
335	18546117 126 990611 1145476 17.09120004222 20.165625514965 4 84 84 336 28224
339	18546243 31 1132775 1132775 20.00378415383 20.00378415383 1 68 68 68 4624
340	18546274 222 996871 1121470 17.219920291456 19.878423083311 7 84 84 588 49392
341	18546496 97 996548 1046622 17.212198053398 18.214034908156 3 68 104 276 26256
342	18546593 63 977283 1139353 16.902673877592 20.052322767866 2 84 84 168 14112
343	18546656 63 1105609 1113820 19.33429898687 19.418221158677 2 68 68 136 9248
347	18546719 319 1073303 1148751 18.73599911428 20.199700453085 10 84 84 840 70560
353	18547038 64 1013623 1061956 17.498138122456 18.498178774882 2 14 15 29 421
354	18547102 88 1013623 1061956 17.498138122456 18.498178774882 2 0.002364824256 0.002405476682 0.004770300938 1.1378711829412e-005
357	18547190 66 1037562 1124346 17.931409606871 19.929739396041 2 104 104 208 21632
358	18547256 64 1116370 1135390 19.486599606678 20.023197343311 2 68 68 136 9248
360	18547320 64 1037352 1077739 17.919154805265 18.901152608838 2 12 13 25 313
361	18547384 88 1037352 1077739 17.919154805265 18.901152608838 2 0.003145485107 0.021147681534 0.024293166641 0.00045711851082184
362	18547472 31 1037352 1037352 17.919154805265 17.919154805265 1 3 3 3 9
365	18547503 94 978613 1043314 16.926685689427 18.149132131345 3 84 84 252 21168
367	18547597 95 1005491 1007286 17.394595692195 17.41885981017 3 14 14 42 588
368	18547692 44 1005491 1005491 17.394595692195 17.394595692195 1 0.049097049544 0.049097049544 0.049097049544 0.002410520273926
369	18547736 95 1005491 1007286 17.394595692195 17.41885981017 3 12 12 36 432
372	18547831 62 993461 993814 17.141215600068 17.142535600056 2 84 84 168 14112
373	18547893 62 1015543 1016184 17.580793159725 17.587471831812 2 4 4 8 32
378	18547955 44 1038911 1038911 18.014221045827 18.014221045827 1 0.003846887672 0.003846887672 0.003846887672 1.4798544760986e-005
379	18547999 64 1038911 1039089 18.014221045827 18.015307933294 2 10 10 20 200
380	18548063 30 1039444 1039444 18.01755995432 18.01755995432 1 8 8 8 64
381	18548093 31 1147125 1147125 20.18144101972 20.18144101972 1 10 10 10 100
387	18548124 32 958069 958069 16.758514262126 16.758514262126 1 104 104 104 10816
390	18548156 64 1004876 1013796 17.378594359424 17.500430937497 2 84 84 168 14112
391	18548220 96 1008098 1065604 17.426464347872 18.518509123259 3 84 84 252 21168
392	18548316 31 1141264 1141264 20.142246032876 20.142246032876 1 8 8 8 64
396	18548347 62 1015543 1016184 17.580793159725 17.587471831812 2 4 5 9 41
398	18548409 32 1082076 1082076 19.041514463706 19.041514463706 1 16 16 16 256
399	18548441 44 1082076 1082076 19.041514463706 19.041514463706 1 0.002766089497 0.002766089497 0.002766089497 7.6512511054137e-006
400	18548485 32 1082076 1082076 19.041514463706 19.041514463706 1 15 15 15 225
404	18548517 32 1094936 1094936 19.226381579137 19.226381579137 1 68 68 68 4624
407	18548549 63 994231 1041387 17.144289170633 18.138613280142 2 14 15 29 421
408	18548612 43 994231 994231 17.144289170633 17.144289170633 1 0.005675890491 0.005675890491 0.005675890491 3.2215732865824e-005
412	18548655 31 1027230 1027230 17.755519807552 17.755519807552 1 3 3 3 9
418	18548686 96 1037752 1100178 17.952305282803 19.270515814559 3 84 84 252 21168
423	18548782 30 961209 961209 16.771794449319 16.771794449319 1 1 1 1 1
424	18548812 62 996995 997000 17.248101173434 17.248101173434 2 84 84 168 14112
425	18548874 62 996995 997000 17.248101173434 17.248101173434 2 84 84 168 14112
426	18548936 61 1006262 1007286 17.403273283322 17.41885981017 2 1 2 3 5
427	18548997 31 1039089 1039089 18.015307933294 18.015307933294 1 1 1 1 1
428	18549028 64 1041380 1041385 18.138613280142 18.138613280142 2 84 84 168 14112
429	18549092 64 1041380 1041385 18.138613280142 18.138613280142 2 84 84 168 14112
430	18549156 64 1082225 1082230 19.084059653804 19.084059653804 2 84 84 168 14112
431	18549220 64 1082225 1082230 19.084059653804 19.084059653804 2 84 84 168 14112

